# generated using pymatgen
data_Cu
_symmetry_space_group_name_H-M   'P 1'
_cell_length_a   104.47949641
_cell_length_b   21.71999997
_cell_length_c   29.85128469
_cell_angle_alpha   90.00000000
_cell_angle_beta   90.00000000
_cell_angle_gamma   90.00000000
_symmetry_Int_Tables_number   1
_chemical_formula_structural   Cu
_chemical_formula_sum   Cu5712
_cell_volume   67741.36090363
_cell_formula_units_Z   5712
loop_
 _symmetry_equiv_pos_site_id
 _symmetry_equiv_pos_as_xyz
  1  'x, y, z'
loop_
 _atom_site_type_symbol
 _atom_site_label
 _atom_site_symmetry_multiplicity
 _atom_site_fract_x
 _atom_site_fract_y
 _atom_site_fract_z
 _atom_site_occupancy
  Cu  Cu0  1  0.13865546  0.08333333  0.44117647  1
  Cu  Cu1  1  0.13865546  0.25000000  0.44117647  1
  Cu  Cu2  1  0.13865546  0.41666667  0.44117647  1
  Cu  Cu3  1  0.13865546  0.58333333  0.44117647  1
  Cu  Cu4  1  0.13865546  0.75000000  0.44117647  1
  Cu  Cu5  1  0.13865546  0.91666667  0.44117647  1
  Cu  Cu6  1  0.28151261  0.08333333  0.44117647  1
  Cu  Cu7  1  0.28151261  0.25000000  0.44117647  1
  Cu  Cu8  1  0.28151261  0.41666667  0.44117647  1
  Cu  Cu9  1  0.28151261  0.58333333  0.44117647  1
  Cu  Cu10  1  0.28151261  0.75000000  0.44117647  1
  Cu  Cu11  1  0.28151261  0.91666667  0.44117647  1
  Cu  Cu12  1  0.42436975  0.08333333  0.44117647  1
  Cu  Cu13  1  0.42436975  0.25000000  0.44117647  1
  Cu  Cu14  1  0.42436975  0.41666667  0.44117647  1
  Cu  Cu15  1  0.42436975  0.58333333  0.44117647  1
  Cu  Cu16  1  0.42436975  0.75000000  0.44117647  1
  Cu  Cu17  1  0.42436975  0.91666667  0.44117647  1
  Cu  Cu18  1  0.56722689  0.08333333  0.44117647  1
  Cu  Cu19  1  0.56722689  0.25000000  0.44117647  1
  Cu  Cu20  1  0.56722689  0.41666667  0.44117647  1
  Cu  Cu21  1  0.56722689  0.58333333  0.44117647  1
  Cu  Cu22  1  0.56722689  0.75000000  0.44117647  1
  Cu  Cu23  1  0.56722689  0.91666667  0.44117647  1
  Cu  Cu24  1  0.71008403  0.08333333  0.44117647  1
  Cu  Cu25  1  0.71008403  0.25000000  0.44117647  1
  Cu  Cu26  1  0.71008403  0.41666667  0.44117647  1
  Cu  Cu27  1  0.71008403  0.58333333  0.44117647  1
  Cu  Cu28  1  0.71008403  0.75000000  0.44117647  1
  Cu  Cu29  1  0.71008403  0.91666667  0.44117647  1
  Cu  Cu30  1  0.85294118  0.08333333  0.44117647  1
  Cu  Cu31  1  0.85294118  0.25000000  0.44117647  1
  Cu  Cu32  1  0.85294118  0.41666667  0.44117647  1
  Cu  Cu33  1  0.85294118  0.58333333  0.44117647  1
  Cu  Cu34  1  0.85294118  0.75000000  0.44117647  1
  Cu  Cu35  1  0.85294118  0.91666667  0.44117647  1
  Cu  Cu36  1  0.99579832  0.08333333  0.44117647  1
  Cu  Cu37  1  0.99579832  0.25000000  0.44117647  1
  Cu  Cu38  1  0.99579832  0.41666667  0.44117647  1
  Cu  Cu39  1  0.99579832  0.58333333  0.44117647  1
  Cu  Cu40  1  0.99579832  0.75000000  0.44117647  1
  Cu  Cu41  1  0.99579832  0.91666667  0.44117647  1
  Cu  Cu42  1  0.13865546  0.08333333  0.94117647  1
  Cu  Cu43  1  0.13865546  0.25000000  0.94117647  1
  Cu  Cu44  1  0.13865546  0.41666667  0.94117647  1
  Cu  Cu45  1  0.13865546  0.58333333  0.94117647  1
  Cu  Cu46  1  0.13865546  0.75000000  0.94117647  1
  Cu  Cu47  1  0.13865546  0.91666667  0.94117647  1
  Cu  Cu48  1  0.28151261  0.08333333  0.94117647  1
  Cu  Cu49  1  0.28151261  0.25000000  0.94117647  1
  Cu  Cu50  1  0.28151261  0.41666667  0.94117647  1
  Cu  Cu51  1  0.28151261  0.58333333  0.94117647  1
  Cu  Cu52  1  0.28151261  0.75000000  0.94117647  1
  Cu  Cu53  1  0.28151261  0.91666667  0.94117647  1
  Cu  Cu54  1  0.42436975  0.08333333  0.94117647  1
  Cu  Cu55  1  0.42436975  0.25000000  0.94117647  1
  Cu  Cu56  1  0.42436975  0.41666667  0.94117647  1
  Cu  Cu57  1  0.42436975  0.58333333  0.94117647  1
  Cu  Cu58  1  0.42436975  0.75000000  0.94117647  1
  Cu  Cu59  1  0.42436975  0.91666667  0.94117647  1
  Cu  Cu60  1  0.56722689  0.08333333  0.94117647  1
  Cu  Cu61  1  0.56722689  0.25000000  0.94117647  1
  Cu  Cu62  1  0.56722689  0.41666667  0.94117647  1
  Cu  Cu63  1  0.56722689  0.58333333  0.94117647  1
  Cu  Cu64  1  0.56722689  0.75000000  0.94117647  1
  Cu  Cu65  1  0.56722689  0.91666667  0.94117647  1
  Cu  Cu66  1  0.71008403  0.08333333  0.94117647  1
  Cu  Cu67  1  0.71008403  0.25000000  0.94117647  1
  Cu  Cu68  1  0.71008403  0.41666667  0.94117647  1
  Cu  Cu69  1  0.71008403  0.58333333  0.94117647  1
  Cu  Cu70  1  0.71008403  0.75000000  0.94117647  1
  Cu  Cu71  1  0.71008403  0.91666667  0.94117647  1
  Cu  Cu72  1  0.85294118  0.08333333  0.94117647  1
  Cu  Cu73  1  0.85294118  0.25000000  0.94117647  1
  Cu  Cu74  1  0.85294118  0.41666667  0.94117647  1
  Cu  Cu75  1  0.85294118  0.58333333  0.94117647  1
  Cu  Cu76  1  0.85294118  0.75000000  0.94117647  1
  Cu  Cu77  1  0.85294118  0.91666667  0.94117647  1
  Cu  Cu78  1  0.99579832  0.08333333  0.94117647  1
  Cu  Cu79  1  0.99579832  0.25000000  0.94117647  1
  Cu  Cu80  1  0.99579832  0.41666667  0.94117647  1
  Cu  Cu81  1  0.99579832  0.58333333  0.94117647  1
  Cu  Cu82  1  0.99579832  0.75000000  0.94117647  1
  Cu  Cu83  1  0.99579832  0.91666667  0.94117647  1
  Cu  Cu84  1  0.12184874  0.00000000  0.45588235  1
  Cu  Cu85  1  0.12184874  0.16666667  0.45588235  1
  Cu  Cu86  1  0.12184874  0.33333333  0.45588235  1
  Cu  Cu87  1  0.12184874  0.50000000  0.45588235  1
  Cu  Cu88  1  0.12184874  0.66666667  0.45588235  1
  Cu  Cu89  1  0.12184874  0.83333333  0.45588235  1
  Cu  Cu90  1  0.26470588  0.00000000  0.45588235  1
  Cu  Cu91  1  0.26470588  0.16666667  0.45588235  1
  Cu  Cu92  1  0.26470588  0.33333333  0.45588235  1
  Cu  Cu93  1  0.26470588  0.50000000  0.45588235  1
  Cu  Cu94  1  0.26470588  0.66666667  0.45588235  1
  Cu  Cu95  1  0.26470588  0.83333333  0.45588235  1
  Cu  Cu96  1  0.40756303  0.00000000  0.45588235  1
  Cu  Cu97  1  0.40756303  0.16666667  0.45588235  1
  Cu  Cu98  1  0.40756303  0.33333333  0.45588235  1
  Cu  Cu99  1  0.40756303  0.50000000  0.45588235  1
  Cu  Cu100  1  0.40756303  0.66666667  0.45588235  1
  Cu  Cu101  1  0.40756303  0.83333333  0.45588235  1
  Cu  Cu102  1  0.55042017  0.00000000  0.45588235  1
  Cu  Cu103  1  0.55042017  0.16666667  0.45588235  1
  Cu  Cu104  1  0.55042017  0.33333333  0.45588235  1
  Cu  Cu105  1  0.55042017  0.50000000  0.45588235  1
  Cu  Cu106  1  0.55042017  0.66666667  0.45588235  1
  Cu  Cu107  1  0.55042017  0.83333333  0.45588235  1
  Cu  Cu108  1  0.69327731  0.00000000  0.45588235  1
  Cu  Cu109  1  0.69327731  0.16666667  0.45588235  1
  Cu  Cu110  1  0.69327731  0.33333333  0.45588235  1
  Cu  Cu111  1  0.69327731  0.50000000  0.45588235  1
  Cu  Cu112  1  0.69327731  0.66666667  0.45588235  1
  Cu  Cu113  1  0.69327731  0.83333333  0.45588235  1
  Cu  Cu114  1  0.83613445  0.00000000  0.45588235  1
  Cu  Cu115  1  0.83613445  0.16666667  0.45588235  1
  Cu  Cu116  1  0.83613445  0.33333333  0.45588235  1
  Cu  Cu117  1  0.83613445  0.50000000  0.45588235  1
  Cu  Cu118  1  0.83613445  0.66666667  0.45588235  1
  Cu  Cu119  1  0.83613445  0.83333333  0.45588235  1
  Cu  Cu120  1  0.97899160  0.00000000  0.45588235  1
  Cu  Cu121  1  0.97899160  0.16666667  0.45588235  1
  Cu  Cu122  1  0.97899160  0.33333333  0.45588235  1
  Cu  Cu123  1  0.97899160  0.50000000  0.45588235  1
  Cu  Cu124  1  0.97899160  0.66666667  0.45588235  1
  Cu  Cu125  1  0.97899160  0.83333333  0.45588235  1
  Cu  Cu126  1  0.12184874  0.00000000  0.95588235  1
  Cu  Cu127  1  0.12184874  0.16666667  0.95588235  1
  Cu  Cu128  1  0.12184874  0.33333333  0.95588235  1
  Cu  Cu129  1  0.12184874  0.50000000  0.95588235  1
  Cu  Cu130  1  0.12184874  0.66666667  0.95588235  1
  Cu  Cu131  1  0.12184874  0.83333333  0.95588235  1
  Cu  Cu132  1  0.26470588  0.00000000  0.95588235  1
  Cu  Cu133  1  0.26470588  0.16666667  0.95588235  1
  Cu  Cu134  1  0.26470588  0.33333333  0.95588235  1
  Cu  Cu135  1  0.26470588  0.50000000  0.95588235  1
  Cu  Cu136  1  0.26470588  0.66666667  0.95588235  1
  Cu  Cu137  1  0.26470588  0.83333333  0.95588235  1
  Cu  Cu138  1  0.40756303  0.00000000  0.95588235  1
  Cu  Cu139  1  0.40756303  0.16666667  0.95588235  1
  Cu  Cu140  1  0.40756303  0.33333333  0.95588235  1
  Cu  Cu141  1  0.40756303  0.50000000  0.95588235  1
  Cu  Cu142  1  0.40756303  0.66666667  0.95588235  1
  Cu  Cu143  1  0.40756303  0.83333333  0.95588235  1
  Cu  Cu144  1  0.55042017  0.00000000  0.95588235  1
  Cu  Cu145  1  0.55042017  0.16666667  0.95588235  1
  Cu  Cu146  1  0.55042017  0.33333333  0.95588235  1
  Cu  Cu147  1  0.55042017  0.50000000  0.95588235  1
  Cu  Cu148  1  0.55042017  0.66666667  0.95588235  1
  Cu  Cu149  1  0.55042017  0.83333333  0.95588235  1
  Cu  Cu150  1  0.69327731  0.00000000  0.95588235  1
  Cu  Cu151  1  0.69327731  0.16666667  0.95588235  1
  Cu  Cu152  1  0.69327731  0.33333333  0.95588235  1
  Cu  Cu153  1  0.69327731  0.50000000  0.95588235  1
  Cu  Cu154  1  0.69327731  0.66666667  0.95588235  1
  Cu  Cu155  1  0.69327731  0.83333333  0.95588235  1
  Cu  Cu156  1  0.83613445  0.00000000  0.95588235  1
  Cu  Cu157  1  0.83613445  0.16666667  0.95588235  1
  Cu  Cu158  1  0.83613445  0.33333333  0.95588235  1
  Cu  Cu159  1  0.83613445  0.50000000  0.95588235  1
  Cu  Cu160  1  0.83613445  0.66666667  0.95588235  1
  Cu  Cu161  1  0.83613445  0.83333333  0.95588235  1
  Cu  Cu162  1  0.97899160  0.00000000  0.95588235  1
  Cu  Cu163  1  0.97899160  0.16666667  0.95588235  1
  Cu  Cu164  1  0.97899160  0.33333333  0.95588235  1
  Cu  Cu165  1  0.97899160  0.50000000  0.95588235  1
  Cu  Cu166  1  0.97899160  0.66666667  0.95588235  1
  Cu  Cu167  1  0.97899160  0.83333333  0.95588235  1
  Cu  Cu168  1  0.13445378  0.00000000  0.38235294  1
  Cu  Cu169  1  0.13445378  0.16666667  0.38235294  1
  Cu  Cu170  1  0.13445378  0.33333333  0.38235294  1
  Cu  Cu171  1  0.13445378  0.50000000  0.38235294  1
  Cu  Cu172  1  0.13445378  0.66666667  0.38235294  1
  Cu  Cu173  1  0.13445378  0.83333333  0.38235294  1
  Cu  Cu174  1  0.27731092  0.00000000  0.38235294  1
  Cu  Cu175  1  0.27731092  0.16666667  0.38235294  1
  Cu  Cu176  1  0.27731092  0.33333333  0.38235294  1
  Cu  Cu177  1  0.27731092  0.50000000  0.38235294  1
  Cu  Cu178  1  0.27731092  0.66666667  0.38235294  1
  Cu  Cu179  1  0.27731092  0.83333333  0.38235294  1
  Cu  Cu180  1  0.42016807  0.00000000  0.38235294  1
  Cu  Cu181  1  0.42016807  0.16666667  0.38235294  1
  Cu  Cu182  1  0.42016807  0.33333333  0.38235294  1
  Cu  Cu183  1  0.42016807  0.50000000  0.38235294  1
  Cu  Cu184  1  0.42016807  0.66666667  0.38235294  1
  Cu  Cu185  1  0.42016807  0.83333333  0.38235294  1
  Cu  Cu186  1  0.56302521  0.00000000  0.38235294  1
  Cu  Cu187  1  0.56302521  0.16666667  0.38235294  1
  Cu  Cu188  1  0.56302521  0.33333333  0.38235294  1
  Cu  Cu189  1  0.56302521  0.50000000  0.38235294  1
  Cu  Cu190  1  0.56302521  0.66666667  0.38235294  1
  Cu  Cu191  1  0.56302521  0.83333333  0.38235294  1
  Cu  Cu192  1  0.70588235  0.00000000  0.38235294  1
  Cu  Cu193  1  0.70588235  0.16666667  0.38235294  1
  Cu  Cu194  1  0.70588235  0.33333333  0.38235294  1
  Cu  Cu195  1  0.70588235  0.50000000  0.38235294  1
  Cu  Cu196  1  0.70588235  0.66666667  0.38235294  1
  Cu  Cu197  1  0.70588235  0.83333333  0.38235294  1
  Cu  Cu198  1  0.84873950  0.00000000  0.38235294  1
  Cu  Cu199  1  0.84873950  0.16666667  0.38235294  1
  Cu  Cu200  1  0.84873950  0.33333333  0.38235294  1
  Cu  Cu201  1  0.84873950  0.50000000  0.38235294  1
  Cu  Cu202  1  0.84873950  0.66666667  0.38235294  1
  Cu  Cu203  1  0.84873950  0.83333333  0.38235294  1
  Cu  Cu204  1  0.99159664  0.00000000  0.38235294  1
  Cu  Cu205  1  0.99159664  0.16666667  0.38235294  1
  Cu  Cu206  1  0.99159664  0.33333333  0.38235294  1
  Cu  Cu207  1  0.99159664  0.50000000  0.38235294  1
  Cu  Cu208  1  0.99159664  0.66666667  0.38235294  1
  Cu  Cu209  1  0.99159664  0.83333333  0.38235294  1
  Cu  Cu210  1  0.13445378  0.00000000  0.88235294  1
  Cu  Cu211  1  0.13445378  0.16666667  0.88235294  1
  Cu  Cu212  1  0.13445378  0.33333333  0.88235294  1
  Cu  Cu213  1  0.13445378  0.50000000  0.88235294  1
  Cu  Cu214  1  0.13445378  0.66666667  0.88235294  1
  Cu  Cu215  1  0.13445378  0.83333333  0.88235294  1
  Cu  Cu216  1  0.27731092  0.00000000  0.88235294  1
  Cu  Cu217  1  0.27731092  0.16666667  0.88235294  1
  Cu  Cu218  1  0.27731092  0.33333333  0.88235294  1
  Cu  Cu219  1  0.27731092  0.50000000  0.88235294  1
  Cu  Cu220  1  0.27731092  0.66666667  0.88235294  1
  Cu  Cu221  1  0.27731092  0.83333333  0.88235294  1
  Cu  Cu222  1  0.42016807  0.00000000  0.88235294  1
  Cu  Cu223  1  0.42016807  0.16666667  0.88235294  1
  Cu  Cu224  1  0.42016807  0.33333333  0.88235294  1
  Cu  Cu225  1  0.42016807  0.50000000  0.88235294  1
  Cu  Cu226  1  0.42016807  0.66666667  0.88235294  1
  Cu  Cu227  1  0.42016807  0.83333333  0.88235294  1
  Cu  Cu228  1  0.56302521  0.00000000  0.88235294  1
  Cu  Cu229  1  0.56302521  0.16666667  0.88235294  1
  Cu  Cu230  1  0.56302521  0.33333333  0.88235294  1
  Cu  Cu231  1  0.56302521  0.50000000  0.88235294  1
  Cu  Cu232  1  0.56302521  0.66666667  0.88235294  1
  Cu  Cu233  1  0.56302521  0.83333333  0.88235294  1
  Cu  Cu234  1  0.70588235  0.00000000  0.88235294  1
  Cu  Cu235  1  0.70588235  0.16666667  0.88235294  1
  Cu  Cu236  1  0.70588235  0.33333333  0.88235294  1
  Cu  Cu237  1  0.70588235  0.50000000  0.88235294  1
  Cu  Cu238  1  0.70588235  0.66666667  0.88235294  1
  Cu  Cu239  1  0.70588235  0.83333333  0.88235294  1
  Cu  Cu240  1  0.84873950  0.00000000  0.88235294  1
  Cu  Cu241  1  0.84873950  0.16666667  0.88235294  1
  Cu  Cu242  1  0.84873950  0.33333333  0.88235294  1
  Cu  Cu243  1  0.84873950  0.50000000  0.88235294  1
  Cu  Cu244  1  0.84873950  0.66666667  0.88235294  1
  Cu  Cu245  1  0.84873950  0.83333333  0.88235294  1
  Cu  Cu246  1  0.99159664  0.00000000  0.88235294  1
  Cu  Cu247  1  0.99159664  0.16666667  0.88235294  1
  Cu  Cu248  1  0.99159664  0.33333333  0.88235294  1
  Cu  Cu249  1  0.99159664  0.50000000  0.88235294  1
  Cu  Cu250  1  0.99159664  0.66666667  0.88235294  1
  Cu  Cu251  1  0.99159664  0.83333333  0.88235294  1
  Cu  Cu252  1  0.10504202  0.08333333  0.47058824  1
  Cu  Cu253  1  0.10504202  0.25000000  0.47058824  1
  Cu  Cu254  1  0.10504202  0.41666667  0.47058824  1
  Cu  Cu255  1  0.10504202  0.58333333  0.47058824  1
  Cu  Cu256  1  0.10504202  0.75000000  0.47058824  1
  Cu  Cu257  1  0.10504202  0.91666667  0.47058824  1
  Cu  Cu258  1  0.24789916  0.08333333  0.47058824  1
  Cu  Cu259  1  0.24789916  0.25000000  0.47058824  1
  Cu  Cu260  1  0.24789916  0.41666667  0.47058824  1
  Cu  Cu261  1  0.24789916  0.58333333  0.47058824  1
  Cu  Cu262  1  0.24789916  0.75000000  0.47058824  1
  Cu  Cu263  1  0.24789916  0.91666667  0.47058824  1
  Cu  Cu264  1  0.39075630  0.08333333  0.47058824  1
  Cu  Cu265  1  0.39075630  0.25000000  0.47058824  1
  Cu  Cu266  1  0.39075630  0.41666667  0.47058824  1
  Cu  Cu267  1  0.39075630  0.58333333  0.47058824  1
  Cu  Cu268  1  0.39075630  0.75000000  0.47058824  1
  Cu  Cu269  1  0.39075630  0.91666667  0.47058824  1
  Cu  Cu270  1  0.53361345  0.08333333  0.47058824  1
  Cu  Cu271  1  0.53361345  0.25000000  0.47058824  1
  Cu  Cu272  1  0.53361345  0.41666667  0.47058824  1
  Cu  Cu273  1  0.53361345  0.58333333  0.47058824  1
  Cu  Cu274  1  0.53361345  0.75000000  0.47058824  1
  Cu  Cu275  1  0.53361345  0.91666667  0.47058824  1
  Cu  Cu276  1  0.67647059  0.08333333  0.47058824  1
  Cu  Cu277  1  0.67647059  0.25000000  0.47058824  1
  Cu  Cu278  1  0.67647059  0.41666667  0.47058824  1
  Cu  Cu279  1  0.67647059  0.58333333  0.47058824  1
  Cu  Cu280  1  0.67647059  0.75000000  0.47058824  1
  Cu  Cu281  1  0.67647059  0.91666667  0.47058824  1
  Cu  Cu282  1  0.81932773  0.08333333  0.47058824  1
  Cu  Cu283  1  0.81932773  0.25000000  0.47058824  1
  Cu  Cu284  1  0.81932773  0.41666667  0.47058824  1
  Cu  Cu285  1  0.81932773  0.58333333  0.47058824  1
  Cu  Cu286  1  0.81932773  0.75000000  0.47058824  1
  Cu  Cu287  1  0.81932773  0.91666667  0.47058824  1
  Cu  Cu288  1  0.96218487  0.08333333  0.47058824  1
  Cu  Cu289  1  0.96218487  0.25000000  0.47058824  1
  Cu  Cu290  1  0.96218487  0.41666667  0.47058824  1
  Cu  Cu291  1  0.96218487  0.58333333  0.47058824  1
  Cu  Cu292  1  0.96218487  0.75000000  0.47058824  1
  Cu  Cu293  1  0.96218487  0.91666667  0.47058824  1
  Cu  Cu294  1  0.10504202  0.08333333  0.97058824  1
  Cu  Cu295  1  0.10504202  0.25000000  0.97058824  1
  Cu  Cu296  1  0.10504202  0.41666667  0.97058824  1
  Cu  Cu297  1  0.10504202  0.58333333  0.97058824  1
  Cu  Cu298  1  0.10504202  0.75000000  0.97058824  1
  Cu  Cu299  1  0.10504202  0.91666667  0.97058824  1
  Cu  Cu300  1  0.24789916  0.08333333  0.97058824  1
  Cu  Cu301  1  0.24789916  0.25000000  0.97058824  1
  Cu  Cu302  1  0.24789916  0.41666667  0.97058824  1
  Cu  Cu303  1  0.24789916  0.58333333  0.97058824  1
  Cu  Cu304  1  0.24789916  0.75000000  0.97058824  1
  Cu  Cu305  1  0.24789916  0.91666667  0.97058824  1
  Cu  Cu306  1  0.39075630  0.08333333  0.97058824  1
  Cu  Cu307  1  0.39075630  0.25000000  0.97058824  1
  Cu  Cu308  1  0.39075630  0.41666667  0.97058824  1
  Cu  Cu309  1  0.39075630  0.58333333  0.97058824  1
  Cu  Cu310  1  0.39075630  0.75000000  0.97058824  1
  Cu  Cu311  1  0.39075630  0.91666667  0.97058824  1
  Cu  Cu312  1  0.53361345  0.08333333  0.97058824  1
  Cu  Cu313  1  0.53361345  0.25000000  0.97058824  1
  Cu  Cu314  1  0.53361345  0.41666667  0.97058824  1
  Cu  Cu315  1  0.53361345  0.58333333  0.97058824  1
  Cu  Cu316  1  0.53361345  0.75000000  0.97058824  1
  Cu  Cu317  1  0.53361345  0.91666667  0.97058824  1
  Cu  Cu318  1  0.67647059  0.08333333  0.97058824  1
  Cu  Cu319  1  0.67647059  0.25000000  0.97058824  1
  Cu  Cu320  1  0.67647059  0.41666667  0.97058824  1
  Cu  Cu321  1  0.67647059  0.58333333  0.97058824  1
  Cu  Cu322  1  0.67647059  0.75000000  0.97058824  1
  Cu  Cu323  1  0.67647059  0.91666667  0.97058824  1
  Cu  Cu324  1  0.81932773  0.08333333  0.97058824  1
  Cu  Cu325  1  0.81932773  0.25000000  0.97058824  1
  Cu  Cu326  1  0.81932773  0.41666667  0.97058824  1
  Cu  Cu327  1  0.81932773  0.58333333  0.97058824  1
  Cu  Cu328  1  0.81932773  0.75000000  0.97058824  1
  Cu  Cu329  1  0.81932773  0.91666667  0.97058824  1
  Cu  Cu330  1  0.96218487  0.08333333  0.97058824  1
  Cu  Cu331  1  0.96218487  0.25000000  0.97058824  1
  Cu  Cu332  1  0.96218487  0.41666667  0.97058824  1
  Cu  Cu333  1  0.96218487  0.58333333  0.97058824  1
  Cu  Cu334  1  0.96218487  0.75000000  0.97058824  1
  Cu  Cu335  1  0.96218487  0.91666667  0.97058824  1
  Cu  Cu336  1  0.08823529  0.00000000  0.48529412  1
  Cu  Cu337  1  0.08823529  0.16666667  0.48529412  1
  Cu  Cu338  1  0.08823529  0.33333333  0.48529412  1
  Cu  Cu339  1  0.08823529  0.50000000  0.48529412  1
  Cu  Cu340  1  0.08823529  0.66666667  0.48529412  1
  Cu  Cu341  1  0.08823529  0.83333333  0.48529412  1
  Cu  Cu342  1  0.23109244  0.00000000  0.48529412  1
  Cu  Cu343  1  0.23109244  0.16666667  0.48529412  1
  Cu  Cu344  1  0.23109244  0.33333333  0.48529412  1
  Cu  Cu345  1  0.23109244  0.50000000  0.48529412  1
  Cu  Cu346  1  0.23109244  0.66666667  0.48529412  1
  Cu  Cu347  1  0.23109244  0.83333333  0.48529412  1
  Cu  Cu348  1  0.37394958  0.00000000  0.48529412  1
  Cu  Cu349  1  0.37394958  0.16666667  0.48529412  1
  Cu  Cu350  1  0.37394958  0.33333333  0.48529412  1
  Cu  Cu351  1  0.37394958  0.50000000  0.48529412  1
  Cu  Cu352  1  0.37394958  0.66666667  0.48529412  1
  Cu  Cu353  1  0.37394958  0.83333333  0.48529412  1
  Cu  Cu354  1  0.51680672  0.00000000  0.48529412  1
  Cu  Cu355  1  0.51680672  0.16666667  0.48529412  1
  Cu  Cu356  1  0.51680672  0.33333333  0.48529412  1
  Cu  Cu357  1  0.51680672  0.50000000  0.48529412  1
  Cu  Cu358  1  0.51680672  0.66666667  0.48529412  1
  Cu  Cu359  1  0.51680672  0.83333333  0.48529412  1
  Cu  Cu360  1  0.65966387  0.00000000  0.48529412  1
  Cu  Cu361  1  0.65966387  0.16666667  0.48529412  1
  Cu  Cu362  1  0.65966387  0.33333333  0.48529412  1
  Cu  Cu363  1  0.65966387  0.50000000  0.48529412  1
  Cu  Cu364  1  0.65966387  0.66666667  0.48529412  1
  Cu  Cu365  1  0.65966387  0.83333333  0.48529412  1
  Cu  Cu366  1  0.80252101  0.00000000  0.48529412  1
  Cu  Cu367  1  0.80252101  0.16666667  0.48529412  1
  Cu  Cu368  1  0.80252101  0.33333333  0.48529412  1
  Cu  Cu369  1  0.80252101  0.50000000  0.48529412  1
  Cu  Cu370  1  0.80252101  0.66666667  0.48529412  1
  Cu  Cu371  1  0.80252101  0.83333333  0.48529412  1
  Cu  Cu372  1  0.94537815  0.00000000  0.48529412  1
  Cu  Cu373  1  0.94537815  0.16666667  0.48529412  1
  Cu  Cu374  1  0.94537815  0.33333333  0.48529412  1
  Cu  Cu375  1  0.94537815  0.50000000  0.48529412  1
  Cu  Cu376  1  0.94537815  0.66666667  0.48529412  1
  Cu  Cu377  1  0.94537815  0.83333333  0.48529412  1
  Cu  Cu378  1  0.08823529  0.00000000  0.98529412  1
  Cu  Cu379  1  0.08823529  0.16666667  0.98529412  1
  Cu  Cu380  1  0.08823529  0.33333333  0.98529412  1
  Cu  Cu381  1  0.08823529  0.50000000  0.98529412  1
  Cu  Cu382  1  0.08823529  0.66666667  0.98529412  1
  Cu  Cu383  1  0.08823529  0.83333333  0.98529412  1
  Cu  Cu384  1  0.23109244  0.00000000  0.98529412  1
  Cu  Cu385  1  0.23109244  0.16666667  0.98529412  1
  Cu  Cu386  1  0.23109244  0.33333333  0.98529412  1
  Cu  Cu387  1  0.23109244  0.50000000  0.98529412  1
  Cu  Cu388  1  0.23109244  0.66666667  0.98529412  1
  Cu  Cu389  1  0.23109244  0.83333333  0.98529412  1
  Cu  Cu390  1  0.37394958  0.00000000  0.98529412  1
  Cu  Cu391  1  0.37394958  0.16666667  0.98529412  1
  Cu  Cu392  1  0.37394958  0.33333333  0.98529412  1
  Cu  Cu393  1  0.37394958  0.50000000  0.98529412  1
  Cu  Cu394  1  0.37394958  0.66666667  0.98529412  1
  Cu  Cu395  1  0.37394958  0.83333333  0.98529412  1
  Cu  Cu396  1  0.51680672  0.00000000  0.98529412  1
  Cu  Cu397  1  0.51680672  0.16666667  0.98529412  1
  Cu  Cu398  1  0.51680672  0.33333333  0.98529412  1
  Cu  Cu399  1  0.51680672  0.50000000  0.98529412  1
  Cu  Cu400  1  0.51680672  0.66666667  0.98529412  1
  Cu  Cu401  1  0.51680672  0.83333333  0.98529412  1
  Cu  Cu402  1  0.65966387  0.00000000  0.98529412  1
  Cu  Cu403  1  0.65966387  0.16666667  0.98529412  1
  Cu  Cu404  1  0.65966387  0.33333333  0.98529412  1
  Cu  Cu405  1  0.65966387  0.50000000  0.98529412  1
  Cu  Cu406  1  0.65966387  0.66666667  0.98529412  1
  Cu  Cu407  1  0.65966387  0.83333333  0.98529412  1
  Cu  Cu408  1  0.80252101  0.00000000  0.98529412  1
  Cu  Cu409  1  0.80252101  0.16666667  0.98529412  1
  Cu  Cu410  1  0.80252101  0.33333333  0.98529412  1
  Cu  Cu411  1  0.80252101  0.50000000  0.98529412  1
  Cu  Cu412  1  0.80252101  0.66666667  0.98529412  1
  Cu  Cu413  1  0.80252101  0.83333333  0.98529412  1
  Cu  Cu414  1  0.94537815  0.00000000  0.98529412  1
  Cu  Cu415  1  0.94537815  0.16666667  0.98529412  1
  Cu  Cu416  1  0.94537815  0.33333333  0.98529412  1
  Cu  Cu417  1  0.94537815  0.50000000  0.98529412  1
  Cu  Cu418  1  0.94537815  0.66666667  0.98529412  1
  Cu  Cu419  1  0.94537815  0.83333333  0.98529412  1
  Cu  Cu420  1  0.11764706  0.08333333  0.39705882  1
  Cu  Cu421  1  0.11764706  0.25000000  0.39705882  1
  Cu  Cu422  1  0.11764706  0.41666667  0.39705882  1
  Cu  Cu423  1  0.11764706  0.58333333  0.39705882  1
  Cu  Cu424  1  0.11764706  0.75000000  0.39705882  1
  Cu  Cu425  1  0.11764706  0.91666667  0.39705882  1
  Cu  Cu426  1  0.26050420  0.08333333  0.39705882  1
  Cu  Cu427  1  0.26050420  0.25000000  0.39705882  1
  Cu  Cu428  1  0.26050420  0.41666667  0.39705882  1
  Cu  Cu429  1  0.26050420  0.58333333  0.39705882  1
  Cu  Cu430  1  0.26050420  0.75000000  0.39705882  1
  Cu  Cu431  1  0.26050420  0.91666667  0.39705882  1
  Cu  Cu432  1  0.40336134  0.08333333  0.39705882  1
  Cu  Cu433  1  0.40336134  0.25000000  0.39705882  1
  Cu  Cu434  1  0.40336134  0.41666667  0.39705882  1
  Cu  Cu435  1  0.40336134  0.58333333  0.39705882  1
  Cu  Cu436  1  0.40336134  0.75000000  0.39705882  1
  Cu  Cu437  1  0.40336134  0.91666667  0.39705882  1
  Cu  Cu438  1  0.54621849  0.08333333  0.39705882  1
  Cu  Cu439  1  0.54621849  0.25000000  0.39705882  1
  Cu  Cu440  1  0.54621849  0.41666667  0.39705882  1
  Cu  Cu441  1  0.54621849  0.58333333  0.39705882  1
  Cu  Cu442  1  0.54621849  0.75000000  0.39705882  1
  Cu  Cu443  1  0.54621849  0.91666667  0.39705882  1
  Cu  Cu444  1  0.68907563  0.08333333  0.39705882  1
  Cu  Cu445  1  0.68907563  0.25000000  0.39705882  1
  Cu  Cu446  1  0.68907563  0.41666667  0.39705882  1
  Cu  Cu447  1  0.68907563  0.58333333  0.39705882  1
  Cu  Cu448  1  0.68907563  0.75000000  0.39705882  1
  Cu  Cu449  1  0.68907563  0.91666667  0.39705882  1
  Cu  Cu450  1  0.83193277  0.08333333  0.39705882  1
  Cu  Cu451  1  0.83193277  0.25000000  0.39705882  1
  Cu  Cu452  1  0.83193277  0.41666667  0.39705882  1
  Cu  Cu453  1  0.83193277  0.58333333  0.39705882  1
  Cu  Cu454  1  0.83193277  0.75000000  0.39705882  1
  Cu  Cu455  1  0.83193277  0.91666667  0.39705882  1
  Cu  Cu456  1  0.97478992  0.08333333  0.39705882  1
  Cu  Cu457  1  0.97478992  0.25000000  0.39705882  1
  Cu  Cu458  1  0.97478992  0.41666667  0.39705882  1
  Cu  Cu459  1  0.97478992  0.58333333  0.39705882  1
  Cu  Cu460  1  0.97478992  0.75000000  0.39705882  1
  Cu  Cu461  1  0.97478992  0.91666667  0.39705882  1
  Cu  Cu462  1  0.11764706  0.08333333  0.89705882  1
  Cu  Cu463  1  0.11764706  0.25000000  0.89705882  1
  Cu  Cu464  1  0.11764706  0.41666667  0.89705882  1
  Cu  Cu465  1  0.11764706  0.58333333  0.89705882  1
  Cu  Cu466  1  0.11764706  0.75000000  0.89705882  1
  Cu  Cu467  1  0.11764706  0.91666667  0.89705882  1
  Cu  Cu468  1  0.26050420  0.08333333  0.89705882  1
  Cu  Cu469  1  0.26050420  0.25000000  0.89705882  1
  Cu  Cu470  1  0.26050420  0.41666667  0.89705882  1
  Cu  Cu471  1  0.26050420  0.58333333  0.89705882  1
  Cu  Cu472  1  0.26050420  0.75000000  0.89705882  1
  Cu  Cu473  1  0.26050420  0.91666667  0.89705882  1
  Cu  Cu474  1  0.40336134  0.08333333  0.89705882  1
  Cu  Cu475  1  0.40336134  0.25000000  0.89705882  1
  Cu  Cu476  1  0.40336134  0.41666667  0.89705882  1
  Cu  Cu477  1  0.40336134  0.58333333  0.89705882  1
  Cu  Cu478  1  0.40336134  0.75000000  0.89705882  1
  Cu  Cu479  1  0.40336134  0.91666667  0.89705882  1
  Cu  Cu480  1  0.54621849  0.08333333  0.89705882  1
  Cu  Cu481  1  0.54621849  0.25000000  0.89705882  1
  Cu  Cu482  1  0.54621849  0.41666667  0.89705882  1
  Cu  Cu483  1  0.54621849  0.58333333  0.89705882  1
  Cu  Cu484  1  0.54621849  0.75000000  0.89705882  1
  Cu  Cu485  1  0.54621849  0.91666667  0.89705882  1
  Cu  Cu486  1  0.68907563  0.08333333  0.89705882  1
  Cu  Cu487  1  0.68907563  0.25000000  0.89705882  1
  Cu  Cu488  1  0.68907563  0.41666667  0.89705882  1
  Cu  Cu489  1  0.68907563  0.58333333  0.89705882  1
  Cu  Cu490  1  0.68907563  0.75000000  0.89705882  1
  Cu  Cu491  1  0.68907563  0.91666667  0.89705882  1
  Cu  Cu492  1  0.83193277  0.08333333  0.89705882  1
  Cu  Cu493  1  0.83193277  0.25000000  0.89705882  1
  Cu  Cu494  1  0.83193277  0.41666667  0.89705882  1
  Cu  Cu495  1  0.83193277  0.58333333  0.89705882  1
  Cu  Cu496  1  0.83193277  0.75000000  0.89705882  1
  Cu  Cu497  1  0.83193277  0.91666667  0.89705882  1
  Cu  Cu498  1  0.97478992  0.08333333  0.89705882  1
  Cu  Cu499  1  0.97478992  0.25000000  0.89705882  1
  Cu  Cu500  1  0.97478992  0.41666667  0.89705882  1
  Cu  Cu501  1  0.97478992  0.58333333  0.89705882  1
  Cu  Cu502  1  0.97478992  0.75000000  0.89705882  1
  Cu  Cu503  1  0.97478992  0.91666667  0.89705882  1
  Cu  Cu504  1  0.10084034  0.00000000  0.41176471  1
  Cu  Cu505  1  0.10084034  0.16666667  0.41176471  1
  Cu  Cu506  1  0.10084034  0.33333333  0.41176471  1
  Cu  Cu507  1  0.10084034  0.50000000  0.41176471  1
  Cu  Cu508  1  0.10084034  0.66666667  0.41176471  1
  Cu  Cu509  1  0.10084034  0.83333333  0.41176471  1
  Cu  Cu510  1  0.24369748  0.00000000  0.41176471  1
  Cu  Cu511  1  0.24369748  0.16666667  0.41176471  1
  Cu  Cu512  1  0.24369748  0.33333333  0.41176471  1
  Cu  Cu513  1  0.24369748  0.50000000  0.41176471  1
  Cu  Cu514  1  0.24369748  0.66666667  0.41176471  1
  Cu  Cu515  1  0.24369748  0.83333333  0.41176471  1
  Cu  Cu516  1  0.38655462  0.00000000  0.41176471  1
  Cu  Cu517  1  0.38655462  0.16666667  0.41176471  1
  Cu  Cu518  1  0.38655462  0.33333333  0.41176471  1
  Cu  Cu519  1  0.38655462  0.50000000  0.41176471  1
  Cu  Cu520  1  0.38655462  0.66666667  0.41176471  1
  Cu  Cu521  1  0.38655462  0.83333333  0.41176471  1
  Cu  Cu522  1  0.52941176  0.00000000  0.41176471  1
  Cu  Cu523  1  0.52941176  0.16666667  0.41176471  1
  Cu  Cu524  1  0.52941176  0.33333333  0.41176471  1
  Cu  Cu525  1  0.52941176  0.50000000  0.41176471  1
  Cu  Cu526  1  0.52941176  0.66666667  0.41176471  1
  Cu  Cu527  1  0.52941176  0.83333333  0.41176471  1
  Cu  Cu528  1  0.67226891  0.00000000  0.41176471  1
  Cu  Cu529  1  0.67226891  0.16666667  0.41176471  1
  Cu  Cu530  1  0.67226891  0.33333333  0.41176471  1
  Cu  Cu531  1  0.67226891  0.50000000  0.41176471  1
  Cu  Cu532  1  0.67226891  0.66666667  0.41176471  1
  Cu  Cu533  1  0.67226891  0.83333333  0.41176471  1
  Cu  Cu534  1  0.81512605  0.00000000  0.41176471  1
  Cu  Cu535  1  0.81512605  0.16666667  0.41176471  1
  Cu  Cu536  1  0.81512605  0.33333333  0.41176471  1
  Cu  Cu537  1  0.81512605  0.50000000  0.41176471  1
  Cu  Cu538  1  0.81512605  0.66666667  0.41176471  1
  Cu  Cu539  1  0.81512605  0.83333333  0.41176471  1
  Cu  Cu540  1  0.95798319  0.00000000  0.41176471  1
  Cu  Cu541  1  0.95798319  0.16666667  0.41176471  1
  Cu  Cu542  1  0.95798319  0.33333333  0.41176471  1
  Cu  Cu543  1  0.95798319  0.50000000  0.41176471  1
  Cu  Cu544  1  0.95798319  0.66666667  0.41176471  1
  Cu  Cu545  1  0.95798319  0.83333333  0.41176471  1
  Cu  Cu546  1  0.10084034  0.00000000  0.91176471  1
  Cu  Cu547  1  0.10084034  0.16666667  0.91176471  1
  Cu  Cu548  1  0.10084034  0.33333333  0.91176471  1
  Cu  Cu549  1  0.10084034  0.50000000  0.91176471  1
  Cu  Cu550  1  0.10084034  0.66666667  0.91176471  1
  Cu  Cu551  1  0.10084034  0.83333333  0.91176471  1
  Cu  Cu552  1  0.24369748  0.00000000  0.91176471  1
  Cu  Cu553  1  0.24369748  0.16666667  0.91176471  1
  Cu  Cu554  1  0.24369748  0.33333333  0.91176471  1
  Cu  Cu555  1  0.24369748  0.50000000  0.91176471  1
  Cu  Cu556  1  0.24369748  0.66666667  0.91176471  1
  Cu  Cu557  1  0.24369748  0.83333333  0.91176471  1
  Cu  Cu558  1  0.38655462  0.00000000  0.91176471  1
  Cu  Cu559  1  0.38655462  0.16666667  0.91176471  1
  Cu  Cu560  1  0.38655462  0.33333333  0.91176471  1
  Cu  Cu561  1  0.38655462  0.50000000  0.91176471  1
  Cu  Cu562  1  0.38655462  0.66666667  0.91176471  1
  Cu  Cu563  1  0.38655462  0.83333333  0.91176471  1
  Cu  Cu564  1  0.52941176  0.00000000  0.91176471  1
  Cu  Cu565  1  0.52941176  0.16666667  0.91176471  1
  Cu  Cu566  1  0.52941176  0.33333333  0.91176471  1
  Cu  Cu567  1  0.52941176  0.50000000  0.91176471  1
  Cu  Cu568  1  0.52941176  0.66666667  0.91176471  1
  Cu  Cu569  1  0.52941176  0.83333333  0.91176471  1
  Cu  Cu570  1  0.67226891  0.00000000  0.91176471  1
  Cu  Cu571  1  0.67226891  0.16666667  0.91176471  1
  Cu  Cu572  1  0.67226891  0.33333333  0.91176471  1
  Cu  Cu573  1  0.67226891  0.50000000  0.91176471  1
  Cu  Cu574  1  0.67226891  0.66666667  0.91176471  1
  Cu  Cu575  1  0.67226891  0.83333333  0.91176471  1
  Cu  Cu576  1  0.81512605  0.00000000  0.91176471  1
  Cu  Cu577  1  0.81512605  0.16666667  0.91176471  1
  Cu  Cu578  1  0.81512605  0.33333333  0.91176471  1
  Cu  Cu579  1  0.81512605  0.50000000  0.91176471  1
  Cu  Cu580  1  0.81512605  0.66666667  0.91176471  1
  Cu  Cu581  1  0.81512605  0.83333333  0.91176471  1
  Cu  Cu582  1  0.95798319  0.00000000  0.91176471  1
  Cu  Cu583  1  0.95798319  0.16666667  0.91176471  1
  Cu  Cu584  1  0.95798319  0.33333333  0.91176471  1
  Cu  Cu585  1  0.95798319  0.50000000  0.91176471  1
  Cu  Cu586  1  0.95798319  0.66666667  0.91176471  1
  Cu  Cu587  1  0.95798319  0.83333333  0.91176471  1
  Cu  Cu588  1  0.13025210  0.08333333  0.32352941  1
  Cu  Cu589  1  0.13025210  0.25000000  0.32352941  1
  Cu  Cu590  1  0.13025210  0.41666667  0.32352941  1
  Cu  Cu591  1  0.13025210  0.58333333  0.32352941  1
  Cu  Cu592  1  0.13025210  0.75000000  0.32352941  1
  Cu  Cu593  1  0.13025210  0.91666667  0.32352941  1
  Cu  Cu594  1  0.27310924  0.08333333  0.32352941  1
  Cu  Cu595  1  0.27310924  0.25000000  0.32352941  1
  Cu  Cu596  1  0.27310924  0.41666667  0.32352941  1
  Cu  Cu597  1  0.27310924  0.58333333  0.32352941  1
  Cu  Cu598  1  0.27310924  0.75000000  0.32352941  1
  Cu  Cu599  1  0.27310924  0.91666667  0.32352941  1
  Cu  Cu600  1  0.41596639  0.08333333  0.32352941  1
  Cu  Cu601  1  0.41596639  0.25000000  0.32352941  1
  Cu  Cu602  1  0.41596639  0.41666667  0.32352941  1
  Cu  Cu603  1  0.41596639  0.58333333  0.32352941  1
  Cu  Cu604  1  0.41596639  0.75000000  0.32352941  1
  Cu  Cu605  1  0.41596639  0.91666667  0.32352941  1
  Cu  Cu606  1  0.55882353  0.08333333  0.32352941  1
  Cu  Cu607  1  0.55882353  0.25000000  0.32352941  1
  Cu  Cu608  1  0.55882353  0.41666667  0.32352941  1
  Cu  Cu609  1  0.55882353  0.58333333  0.32352941  1
  Cu  Cu610  1  0.55882353  0.75000000  0.32352941  1
  Cu  Cu611  1  0.55882353  0.91666667  0.32352941  1
  Cu  Cu612  1  0.70168067  0.08333333  0.32352941  1
  Cu  Cu613  1  0.70168067  0.25000000  0.32352941  1
  Cu  Cu614  1  0.70168067  0.41666667  0.32352941  1
  Cu  Cu615  1  0.70168067  0.58333333  0.32352941  1
  Cu  Cu616  1  0.70168067  0.75000000  0.32352941  1
  Cu  Cu617  1  0.70168067  0.91666667  0.32352941  1
  Cu  Cu618  1  0.84453782  0.08333333  0.32352941  1
  Cu  Cu619  1  0.84453782  0.25000000  0.32352941  1
  Cu  Cu620  1  0.84453782  0.41666667  0.32352941  1
  Cu  Cu621  1  0.84453782  0.58333333  0.32352941  1
  Cu  Cu622  1  0.84453782  0.75000000  0.32352941  1
  Cu  Cu623  1  0.84453782  0.91666667  0.32352941  1
  Cu  Cu624  1  0.98739496  0.08333333  0.32352941  1
  Cu  Cu625  1  0.98739496  0.25000000  0.32352941  1
  Cu  Cu626  1  0.98739496  0.41666667  0.32352941  1
  Cu  Cu627  1  0.98739496  0.58333333  0.32352941  1
  Cu  Cu628  1  0.98739496  0.75000000  0.32352941  1
  Cu  Cu629  1  0.98739496  0.91666667  0.32352941  1
  Cu  Cu630  1  0.13025210  0.08333333  0.82352941  1
  Cu  Cu631  1  0.13025210  0.25000000  0.82352941  1
  Cu  Cu632  1  0.13025210  0.41666667  0.82352941  1
  Cu  Cu633  1  0.13025210  0.58333333  0.82352941  1
  Cu  Cu634  1  0.13025210  0.75000000  0.82352941  1
  Cu  Cu635  1  0.13025210  0.91666667  0.82352941  1
  Cu  Cu636  1  0.27310924  0.08333333  0.82352941  1
  Cu  Cu637  1  0.27310924  0.25000000  0.82352941  1
  Cu  Cu638  1  0.27310924  0.41666667  0.82352941  1
  Cu  Cu639  1  0.27310924  0.58333333  0.82352941  1
  Cu  Cu640  1  0.27310924  0.75000000  0.82352941  1
  Cu  Cu641  1  0.27310924  0.91666667  0.82352941  1
  Cu  Cu642  1  0.41596639  0.08333333  0.82352941  1
  Cu  Cu643  1  0.41596639  0.25000000  0.82352941  1
  Cu  Cu644  1  0.41596639  0.41666667  0.82352941  1
  Cu  Cu645  1  0.41596639  0.58333333  0.82352941  1
  Cu  Cu646  1  0.41596639  0.75000000  0.82352941  1
  Cu  Cu647  1  0.41596639  0.91666667  0.82352941  1
  Cu  Cu648  1  0.55882353  0.08333333  0.82352941  1
  Cu  Cu649  1  0.55882353  0.25000000  0.82352941  1
  Cu  Cu650  1  0.55882353  0.41666667  0.82352941  1
  Cu  Cu651  1  0.55882353  0.58333333  0.82352941  1
  Cu  Cu652  1  0.55882353  0.75000000  0.82352941  1
  Cu  Cu653  1  0.55882353  0.91666667  0.82352941  1
  Cu  Cu654  1  0.70168067  0.08333333  0.82352941  1
  Cu  Cu655  1  0.70168067  0.25000000  0.82352941  1
  Cu  Cu656  1  0.70168067  0.41666667  0.82352941  1
  Cu  Cu657  1  0.70168067  0.58333333  0.82352941  1
  Cu  Cu658  1  0.70168067  0.75000000  0.82352941  1
  Cu  Cu659  1  0.70168067  0.91666667  0.82352941  1
  Cu  Cu660  1  0.84453782  0.08333333  0.82352941  1
  Cu  Cu661  1  0.84453782  0.25000000  0.82352941  1
  Cu  Cu662  1  0.84453782  0.41666667  0.82352941  1
  Cu  Cu663  1  0.84453782  0.58333333  0.82352941  1
  Cu  Cu664  1  0.84453782  0.75000000  0.82352941  1
  Cu  Cu665  1  0.84453782  0.91666667  0.82352941  1
  Cu  Cu666  1  0.98739496  0.08333333  0.82352941  1
  Cu  Cu667  1  0.98739496  0.25000000  0.82352941  1
  Cu  Cu668  1  0.98739496  0.41666667  0.82352941  1
  Cu  Cu669  1  0.98739496  0.58333333  0.82352941  1
  Cu  Cu670  1  0.98739496  0.75000000  0.82352941  1
  Cu  Cu671  1  0.98739496  0.91666667  0.82352941  1
  Cu  Cu672  1  0.11344538  0.00000000  0.33823529  1
  Cu  Cu673  1  0.11344538  0.16666667  0.33823529  1
  Cu  Cu674  1  0.11344538  0.33333333  0.33823529  1
  Cu  Cu675  1  0.11344538  0.50000000  0.33823529  1
  Cu  Cu676  1  0.11344538  0.66666667  0.33823529  1
  Cu  Cu677  1  0.11344538  0.83333333  0.33823529  1
  Cu  Cu678  1  0.25630252  0.00000000  0.33823529  1
  Cu  Cu679  1  0.25630252  0.16666667  0.33823529  1
  Cu  Cu680  1  0.25630252  0.33333333  0.33823529  1
  Cu  Cu681  1  0.25630252  0.50000000  0.33823529  1
  Cu  Cu682  1  0.25630252  0.66666667  0.33823529  1
  Cu  Cu683  1  0.25630252  0.83333333  0.33823529  1
  Cu  Cu684  1  0.39915966  0.00000000  0.33823529  1
  Cu  Cu685  1  0.39915966  0.16666667  0.33823529  1
  Cu  Cu686  1  0.39915966  0.33333333  0.33823529  1
  Cu  Cu687  1  0.39915966  0.50000000  0.33823529  1
  Cu  Cu688  1  0.39915966  0.66666667  0.33823529  1
  Cu  Cu689  1  0.39915966  0.83333333  0.33823529  1
  Cu  Cu690  1  0.54201681  0.00000000  0.33823529  1
  Cu  Cu691  1  0.54201681  0.16666667  0.33823529  1
  Cu  Cu692  1  0.54201681  0.33333333  0.33823529  1
  Cu  Cu693  1  0.54201681  0.50000000  0.33823529  1
  Cu  Cu694  1  0.54201681  0.66666667  0.33823529  1
  Cu  Cu695  1  0.54201681  0.83333333  0.33823529  1
  Cu  Cu696  1  0.68487395  0.00000000  0.33823529  1
  Cu  Cu697  1  0.68487395  0.16666667  0.33823529  1
  Cu  Cu698  1  0.68487395  0.33333333  0.33823529  1
  Cu  Cu699  1  0.68487395  0.50000000  0.33823529  1
  Cu  Cu700  1  0.68487395  0.66666667  0.33823529  1
  Cu  Cu701  1  0.68487395  0.83333333  0.33823529  1
  Cu  Cu702  1  0.82773109  0.00000000  0.33823529  1
  Cu  Cu703  1  0.82773109  0.16666667  0.33823529  1
  Cu  Cu704  1  0.82773109  0.33333333  0.33823529  1
  Cu  Cu705  1  0.82773109  0.50000000  0.33823529  1
  Cu  Cu706  1  0.82773109  0.66666667  0.33823529  1
  Cu  Cu707  1  0.82773109  0.83333333  0.33823529  1
  Cu  Cu708  1  0.97058824  0.00000000  0.33823529  1
  Cu  Cu709  1  0.97058824  0.16666667  0.33823529  1
  Cu  Cu710  1  0.97058824  0.33333333  0.33823529  1
  Cu  Cu711  1  0.97058824  0.50000000  0.33823529  1
  Cu  Cu712  1  0.97058824  0.66666667  0.33823529  1
  Cu  Cu713  1  0.97058824  0.83333333  0.33823529  1
  Cu  Cu714  1  0.11344538  0.00000000  0.83823529  1
  Cu  Cu715  1  0.11344538  0.16666667  0.83823529  1
  Cu  Cu716  1  0.11344538  0.33333333  0.83823529  1
  Cu  Cu717  1  0.11344538  0.50000000  0.83823529  1
  Cu  Cu718  1  0.11344538  0.66666667  0.83823529  1
  Cu  Cu719  1  0.11344538  0.83333333  0.83823529  1
  Cu  Cu720  1  0.25630252  0.00000000  0.83823529  1
  Cu  Cu721  1  0.25630252  0.16666667  0.83823529  1
  Cu  Cu722  1  0.25630252  0.33333333  0.83823529  1
  Cu  Cu723  1  0.25630252  0.50000000  0.83823529  1
  Cu  Cu724  1  0.25630252  0.66666667  0.83823529  1
  Cu  Cu725  1  0.25630252  0.83333333  0.83823529  1
  Cu  Cu726  1  0.39915966  0.00000000  0.83823529  1
  Cu  Cu727  1  0.39915966  0.16666667  0.83823529  1
  Cu  Cu728  1  0.39915966  0.33333333  0.83823529  1
  Cu  Cu729  1  0.39915966  0.50000000  0.83823529  1
  Cu  Cu730  1  0.39915966  0.66666667  0.83823529  1
  Cu  Cu731  1  0.39915966  0.83333333  0.83823529  1
  Cu  Cu732  1  0.54201681  0.00000000  0.83823529  1
  Cu  Cu733  1  0.54201681  0.16666667  0.83823529  1
  Cu  Cu734  1  0.54201681  0.33333333  0.83823529  1
  Cu  Cu735  1  0.54201681  0.50000000  0.83823529  1
  Cu  Cu736  1  0.54201681  0.66666667  0.83823529  1
  Cu  Cu737  1  0.54201681  0.83333333  0.83823529  1
  Cu  Cu738  1  0.68487395  0.00000000  0.83823529  1
  Cu  Cu739  1  0.68487395  0.16666667  0.83823529  1
  Cu  Cu740  1  0.68487395  0.33333333  0.83823529  1
  Cu  Cu741  1  0.68487395  0.50000000  0.83823529  1
  Cu  Cu742  1  0.68487395  0.66666667  0.83823529  1
  Cu  Cu743  1  0.68487395  0.83333333  0.83823529  1
  Cu  Cu744  1  0.82773109  0.00000000  0.83823529  1
  Cu  Cu745  1  0.82773109  0.16666667  0.83823529  1
  Cu  Cu746  1  0.82773109  0.33333333  0.83823529  1
  Cu  Cu747  1  0.82773109  0.50000000  0.83823529  1
  Cu  Cu748  1  0.82773109  0.66666667  0.83823529  1
  Cu  Cu749  1  0.82773109  0.83333333  0.83823529  1
  Cu  Cu750  1  0.97058824  0.00000000  0.83823529  1
  Cu  Cu751  1  0.97058824  0.16666667  0.83823529  1
  Cu  Cu752  1  0.97058824  0.33333333  0.83823529  1
  Cu  Cu753  1  0.97058824  0.50000000  0.83823529  1
  Cu  Cu754  1  0.97058824  0.66666667  0.83823529  1
  Cu  Cu755  1  0.97058824  0.83333333  0.83823529  1
  Cu  Cu756  1  0.12605042  0.00000000  0.26470588  1
  Cu  Cu757  1  0.12605042  0.16666667  0.26470588  1
  Cu  Cu758  1  0.12605042  0.33333333  0.26470588  1
  Cu  Cu759  1  0.12605042  0.50000000  0.26470588  1
  Cu  Cu760  1  0.12605042  0.66666667  0.26470588  1
  Cu  Cu761  1  0.12605042  0.83333333  0.26470588  1
  Cu  Cu762  1  0.26890756  0.00000000  0.26470588  1
  Cu  Cu763  1  0.26890756  0.16666667  0.26470588  1
  Cu  Cu764  1  0.26890756  0.33333333  0.26470588  1
  Cu  Cu765  1  0.26890756  0.50000000  0.26470588  1
  Cu  Cu766  1  0.26890756  0.66666667  0.26470588  1
  Cu  Cu767  1  0.26890756  0.83333333  0.26470588  1
  Cu  Cu768  1  0.41176471  0.00000000  0.26470588  1
  Cu  Cu769  1  0.41176471  0.16666667  0.26470588  1
  Cu  Cu770  1  0.41176471  0.33333333  0.26470588  1
  Cu  Cu771  1  0.41176471  0.50000000  0.26470588  1
  Cu  Cu772  1  0.41176471  0.66666667  0.26470588  1
  Cu  Cu773  1  0.41176471  0.83333333  0.26470588  1
  Cu  Cu774  1  0.55462185  0.00000000  0.26470588  1
  Cu  Cu775  1  0.55462185  0.16666667  0.26470588  1
  Cu  Cu776  1  0.55462185  0.33333333  0.26470588  1
  Cu  Cu777  1  0.55462185  0.50000000  0.26470588  1
  Cu  Cu778  1  0.55462185  0.66666667  0.26470588  1
  Cu  Cu779  1  0.55462185  0.83333333  0.26470588  1
  Cu  Cu780  1  0.69747899  0.00000000  0.26470588  1
  Cu  Cu781  1  0.69747899  0.16666667  0.26470588  1
  Cu  Cu782  1  0.69747899  0.33333333  0.26470588  1
  Cu  Cu783  1  0.69747899  0.50000000  0.26470588  1
  Cu  Cu784  1  0.69747899  0.66666667  0.26470588  1
  Cu  Cu785  1  0.69747899  0.83333333  0.26470588  1
  Cu  Cu786  1  0.84033613  0.00000000  0.26470588  1
  Cu  Cu787  1  0.84033613  0.16666667  0.26470588  1
  Cu  Cu788  1  0.84033613  0.33333333  0.26470588  1
  Cu  Cu789  1  0.84033613  0.50000000  0.26470588  1
  Cu  Cu790  1  0.84033613  0.66666667  0.26470588  1
  Cu  Cu791  1  0.84033613  0.83333333  0.26470588  1
  Cu  Cu792  1  0.98319328  0.00000000  0.26470588  1
  Cu  Cu793  1  0.98319328  0.16666667  0.26470588  1
  Cu  Cu794  1  0.98319328  0.33333333  0.26470588  1
  Cu  Cu795  1  0.98319328  0.50000000  0.26470588  1
  Cu  Cu796  1  0.98319328  0.66666667  0.26470588  1
  Cu  Cu797  1  0.98319328  0.83333333  0.26470588  1
  Cu  Cu798  1  0.12605042  0.00000000  0.76470588  1
  Cu  Cu799  1  0.12605042  0.16666667  0.76470588  1
  Cu  Cu800  1  0.12605042  0.33333333  0.76470588  1
  Cu  Cu801  1  0.12605042  0.50000000  0.76470588  1
  Cu  Cu802  1  0.12605042  0.66666667  0.76470588  1
  Cu  Cu803  1  0.12605042  0.83333333  0.76470588  1
  Cu  Cu804  1  0.26890756  0.00000000  0.76470588  1
  Cu  Cu805  1  0.26890756  0.16666667  0.76470588  1
  Cu  Cu806  1  0.26890756  0.33333333  0.76470588  1
  Cu  Cu807  1  0.26890756  0.50000000  0.76470588  1
  Cu  Cu808  1  0.26890756  0.66666667  0.76470588  1
  Cu  Cu809  1  0.26890756  0.83333333  0.76470588  1
  Cu  Cu810  1  0.41176471  0.00000000  0.76470588  1
  Cu  Cu811  1  0.41176471  0.16666667  0.76470588  1
  Cu  Cu812  1  0.41176471  0.33333333  0.76470588  1
  Cu  Cu813  1  0.41176471  0.50000000  0.76470588  1
  Cu  Cu814  1  0.41176471  0.66666667  0.76470588  1
  Cu  Cu815  1  0.41176471  0.83333333  0.76470588  1
  Cu  Cu816  1  0.55462185  0.00000000  0.76470588  1
  Cu  Cu817  1  0.55462185  0.16666667  0.76470588  1
  Cu  Cu818  1  0.55462185  0.33333333  0.76470588  1
  Cu  Cu819  1  0.55462185  0.50000000  0.76470588  1
  Cu  Cu820  1  0.55462185  0.66666667  0.76470588  1
  Cu  Cu821  1  0.55462185  0.83333333  0.76470588  1
  Cu  Cu822  1  0.69747899  0.00000000  0.76470588  1
  Cu  Cu823  1  0.69747899  0.16666667  0.76470588  1
  Cu  Cu824  1  0.69747899  0.33333333  0.76470588  1
  Cu  Cu825  1  0.69747899  0.50000000  0.76470588  1
  Cu  Cu826  1  0.69747899  0.66666667  0.76470588  1
  Cu  Cu827  1  0.69747899  0.83333333  0.76470588  1
  Cu  Cu828  1  0.84033613  0.00000000  0.76470588  1
  Cu  Cu829  1  0.84033613  0.16666667  0.76470588  1
  Cu  Cu830  1  0.84033613  0.33333333  0.76470588  1
  Cu  Cu831  1  0.84033613  0.50000000  0.76470588  1
  Cu  Cu832  1  0.84033613  0.66666667  0.76470588  1
  Cu  Cu833  1  0.84033613  0.83333333  0.76470588  1
  Cu  Cu834  1  0.98319328  0.00000000  0.76470588  1
  Cu  Cu835  1  0.98319328  0.16666667  0.76470588  1
  Cu  Cu836  1  0.98319328  0.33333333  0.76470588  1
  Cu  Cu837  1  0.98319328  0.50000000  0.76470588  1
  Cu  Cu838  1  0.98319328  0.66666667  0.76470588  1
  Cu  Cu839  1  0.98319328  0.83333333  0.76470588  1
  Cu  Cu840  1  0.13865546  0.00000000  0.19117647  1
  Cu  Cu841  1  0.13865546  0.16666667  0.19117647  1
  Cu  Cu842  1  0.13865546  0.33333333  0.19117647  1
  Cu  Cu843  1  0.13865546  0.50000000  0.19117647  1
  Cu  Cu844  1  0.13865546  0.66666667  0.19117647  1
  Cu  Cu845  1  0.13865546  0.83333333  0.19117647  1
  Cu  Cu846  1  0.28151261  0.00000000  0.19117647  1
  Cu  Cu847  1  0.28151261  0.16666667  0.19117647  1
  Cu  Cu848  1  0.28151261  0.33333333  0.19117647  1
  Cu  Cu849  1  0.28151261  0.50000000  0.19117647  1
  Cu  Cu850  1  0.28151261  0.66666667  0.19117647  1
  Cu  Cu851  1  0.28151261  0.83333333  0.19117647  1
  Cu  Cu852  1  0.42436975  0.00000000  0.19117647  1
  Cu  Cu853  1  0.42436975  0.16666667  0.19117647  1
  Cu  Cu854  1  0.42436975  0.33333333  0.19117647  1
  Cu  Cu855  1  0.42436975  0.50000000  0.19117647  1
  Cu  Cu856  1  0.42436975  0.66666667  0.19117647  1
  Cu  Cu857  1  0.42436975  0.83333333  0.19117647  1
  Cu  Cu858  1  0.56722689  0.00000000  0.19117647  1
  Cu  Cu859  1  0.56722689  0.16666667  0.19117647  1
  Cu  Cu860  1  0.56722689  0.33333333  0.19117647  1
  Cu  Cu861  1  0.56722689  0.50000000  0.19117647  1
  Cu  Cu862  1  0.56722689  0.66666667  0.19117647  1
  Cu  Cu863  1  0.56722689  0.83333333  0.19117647  1
  Cu  Cu864  1  0.71008403  0.00000000  0.19117647  1
  Cu  Cu865  1  0.71008403  0.16666667  0.19117647  1
  Cu  Cu866  1  0.71008403  0.33333333  0.19117647  1
  Cu  Cu867  1  0.71008403  0.50000000  0.19117647  1
  Cu  Cu868  1  0.71008403  0.66666667  0.19117647  1
  Cu  Cu869  1  0.71008403  0.83333333  0.19117647  1
  Cu  Cu870  1  0.85294118  0.00000000  0.19117647  1
  Cu  Cu871  1  0.85294118  0.16666667  0.19117647  1
  Cu  Cu872  1  0.85294118  0.33333333  0.19117647  1
  Cu  Cu873  1  0.85294118  0.50000000  0.19117647  1
  Cu  Cu874  1  0.85294118  0.66666667  0.19117647  1
  Cu  Cu875  1  0.85294118  0.83333333  0.19117647  1
  Cu  Cu876  1  0.99579832  0.00000000  0.19117647  1
  Cu  Cu877  1  0.99579832  0.16666667  0.19117647  1
  Cu  Cu878  1  0.99579832  0.33333333  0.19117647  1
  Cu  Cu879  1  0.99579832  0.50000000  0.19117647  1
  Cu  Cu880  1  0.99579832  0.66666667  0.19117647  1
  Cu  Cu881  1  0.99579832  0.83333333  0.19117647  1
  Cu  Cu882  1  0.13865546  0.00000000  0.69117647  1
  Cu  Cu883  1  0.13865546  0.16666667  0.69117647  1
  Cu  Cu884  1  0.13865546  0.33333333  0.69117647  1
  Cu  Cu885  1  0.13865546  0.50000000  0.69117647  1
  Cu  Cu886  1  0.13865546  0.66666667  0.69117647  1
  Cu  Cu887  1  0.13865546  0.83333333  0.69117647  1
  Cu  Cu888  1  0.28151261  0.00000000  0.69117647  1
  Cu  Cu889  1  0.28151261  0.16666667  0.69117647  1
  Cu  Cu890  1  0.28151261  0.33333333  0.69117647  1
  Cu  Cu891  1  0.28151261  0.50000000  0.69117647  1
  Cu  Cu892  1  0.28151261  0.66666667  0.69117647  1
  Cu  Cu893  1  0.28151261  0.83333333  0.69117647  1
  Cu  Cu894  1  0.42436975  0.00000000  0.69117647  1
  Cu  Cu895  1  0.42436975  0.16666667  0.69117647  1
  Cu  Cu896  1  0.42436975  0.33333333  0.69117647  1
  Cu  Cu897  1  0.42436975  0.50000000  0.69117647  1
  Cu  Cu898  1  0.42436975  0.66666667  0.69117647  1
  Cu  Cu899  1  0.42436975  0.83333333  0.69117647  1
  Cu  Cu900  1  0.56722689  0.00000000  0.69117647  1
  Cu  Cu901  1  0.56722689  0.16666667  0.69117647  1
  Cu  Cu902  1  0.56722689  0.33333333  0.69117647  1
  Cu  Cu903  1  0.56722689  0.50000000  0.69117647  1
  Cu  Cu904  1  0.56722689  0.66666667  0.69117647  1
  Cu  Cu905  1  0.56722689  0.83333333  0.69117647  1
  Cu  Cu906  1  0.71008403  0.00000000  0.69117647  1
  Cu  Cu907  1  0.71008403  0.16666667  0.69117647  1
  Cu  Cu908  1  0.71008403  0.33333333  0.69117647  1
  Cu  Cu909  1  0.71008403  0.50000000  0.69117647  1
  Cu  Cu910  1  0.71008403  0.66666667  0.69117647  1
  Cu  Cu911  1  0.71008403  0.83333333  0.69117647  1
  Cu  Cu912  1  0.85294118  0.00000000  0.69117647  1
  Cu  Cu913  1  0.85294118  0.16666667  0.69117647  1
  Cu  Cu914  1  0.85294118  0.33333333  0.69117647  1
  Cu  Cu915  1  0.85294118  0.50000000  0.69117647  1
  Cu  Cu916  1  0.85294118  0.66666667  0.69117647  1
  Cu  Cu917  1  0.85294118  0.83333333  0.69117647  1
  Cu  Cu918  1  0.99579832  0.00000000  0.69117647  1
  Cu  Cu919  1  0.99579832  0.16666667  0.69117647  1
  Cu  Cu920  1  0.99579832  0.33333333  0.69117647  1
  Cu  Cu921  1  0.99579832  0.50000000  0.69117647  1
  Cu  Cu922  1  0.99579832  0.66666667  0.69117647  1
  Cu  Cu923  1  0.99579832  0.83333333  0.69117647  1
  Cu  Cu924  1  0.08403361  0.08333333  0.42647059  1
  Cu  Cu925  1  0.08403361  0.25000000  0.42647059  1
  Cu  Cu926  1  0.08403361  0.41666667  0.42647059  1
  Cu  Cu927  1  0.08403361  0.58333333  0.42647059  1
  Cu  Cu928  1  0.08403361  0.75000000  0.42647059  1
  Cu  Cu929  1  0.08403361  0.91666667  0.42647059  1
  Cu  Cu930  1  0.22689076  0.08333333  0.42647059  1
  Cu  Cu931  1  0.22689076  0.25000000  0.42647059  1
  Cu  Cu932  1  0.22689076  0.41666667  0.42647059  1
  Cu  Cu933  1  0.22689076  0.58333333  0.42647059  1
  Cu  Cu934  1  0.22689076  0.75000000  0.42647059  1
  Cu  Cu935  1  0.22689076  0.91666667  0.42647059  1
  Cu  Cu936  1  0.36974790  0.08333333  0.42647059  1
  Cu  Cu937  1  0.36974790  0.25000000  0.42647059  1
  Cu  Cu938  1  0.36974790  0.41666667  0.42647059  1
  Cu  Cu939  1  0.36974790  0.58333333  0.42647059  1
  Cu  Cu940  1  0.36974790  0.75000000  0.42647059  1
  Cu  Cu941  1  0.36974790  0.91666667  0.42647059  1
  Cu  Cu942  1  0.51260504  0.08333333  0.42647059  1
  Cu  Cu943  1  0.51260504  0.25000000  0.42647059  1
  Cu  Cu944  1  0.51260504  0.41666667  0.42647059  1
  Cu  Cu945  1  0.51260504  0.58333333  0.42647059  1
  Cu  Cu946  1  0.51260504  0.75000000  0.42647059  1
  Cu  Cu947  1  0.51260504  0.91666667  0.42647059  1
  Cu  Cu948  1  0.65546218  0.08333333  0.42647059  1
  Cu  Cu949  1  0.65546218  0.25000000  0.42647059  1
  Cu  Cu950  1  0.65546218  0.41666667  0.42647059  1
  Cu  Cu951  1  0.65546218  0.58333333  0.42647059  1
  Cu  Cu952  1  0.65546218  0.75000000  0.42647059  1
  Cu  Cu953  1  0.65546218  0.91666667  0.42647059  1
  Cu  Cu954  1  0.79831933  0.08333333  0.42647059  1
  Cu  Cu955  1  0.79831933  0.25000000  0.42647059  1
  Cu  Cu956  1  0.79831933  0.41666667  0.42647059  1
  Cu  Cu957  1  0.79831933  0.58333333  0.42647059  1
  Cu  Cu958  1  0.79831933  0.75000000  0.42647059  1
  Cu  Cu959  1  0.79831933  0.91666667  0.42647059  1
  Cu  Cu960  1  0.94117647  0.08333333  0.42647059  1
  Cu  Cu961  1  0.94117647  0.25000000  0.42647059  1
  Cu  Cu962  1  0.94117647  0.41666667  0.42647059  1
  Cu  Cu963  1  0.94117647  0.58333333  0.42647059  1
  Cu  Cu964  1  0.94117647  0.75000000  0.42647059  1
  Cu  Cu965  1  0.94117647  0.91666667  0.42647059  1
  Cu  Cu966  1  0.08403361  0.08333333  0.92647059  1
  Cu  Cu967  1  0.08403361  0.25000000  0.92647059  1
  Cu  Cu968  1  0.08403361  0.41666667  0.92647059  1
  Cu  Cu969  1  0.08403361  0.58333333  0.92647059  1
  Cu  Cu970  1  0.08403361  0.75000000  0.92647059  1
  Cu  Cu971  1  0.08403361  0.91666667  0.92647059  1
  Cu  Cu972  1  0.22689076  0.08333333  0.92647059  1
  Cu  Cu973  1  0.22689076  0.25000000  0.92647059  1
  Cu  Cu974  1  0.22689076  0.41666667  0.92647059  1
  Cu  Cu975  1  0.22689076  0.58333333  0.92647059  1
  Cu  Cu976  1  0.22689076  0.75000000  0.92647059  1
  Cu  Cu977  1  0.22689076  0.91666667  0.92647059  1
  Cu  Cu978  1  0.36974790  0.08333333  0.92647059  1
  Cu  Cu979  1  0.36974790  0.25000000  0.92647059  1
  Cu  Cu980  1  0.36974790  0.41666667  0.92647059  1
  Cu  Cu981  1  0.36974790  0.58333333  0.92647059  1
  Cu  Cu982  1  0.36974790  0.75000000  0.92647059  1
  Cu  Cu983  1  0.36974790  0.91666667  0.92647059  1
  Cu  Cu984  1  0.51260504  0.08333333  0.92647059  1
  Cu  Cu985  1  0.51260504  0.25000000  0.92647059  1
  Cu  Cu986  1  0.51260504  0.41666667  0.92647059  1
  Cu  Cu987  1  0.51260504  0.58333333  0.92647059  1
  Cu  Cu988  1  0.51260504  0.75000000  0.92647059  1
  Cu  Cu989  1  0.51260504  0.91666667  0.92647059  1
  Cu  Cu990  1  0.65546218  0.08333333  0.92647059  1
  Cu  Cu991  1  0.65546218  0.25000000  0.92647059  1
  Cu  Cu992  1  0.65546218  0.41666667  0.92647059  1
  Cu  Cu993  1  0.65546218  0.58333333  0.92647059  1
  Cu  Cu994  1  0.65546218  0.75000000  0.92647059  1
  Cu  Cu995  1  0.65546218  0.91666667  0.92647059  1
  Cu  Cu996  1  0.79831933  0.08333333  0.92647059  1
  Cu  Cu997  1  0.79831933  0.25000000  0.92647059  1
  Cu  Cu998  1  0.79831933  0.41666667  0.92647059  1
  Cu  Cu999  1  0.79831933  0.58333333  0.92647059  1
  Cu  Cu1000  1  0.79831933  0.75000000  0.92647059  1
  Cu  Cu1001  1  0.79831933  0.91666667  0.92647059  1
  Cu  Cu1002  1  0.94117647  0.08333333  0.92647059  1
  Cu  Cu1003  1  0.94117647  0.25000000  0.92647059  1
  Cu  Cu1004  1  0.94117647  0.41666667  0.92647059  1
  Cu  Cu1005  1  0.94117647  0.58333333  0.92647059  1
  Cu  Cu1006  1  0.94117647  0.75000000  0.92647059  1
  Cu  Cu1007  1  0.94117647  0.91666667  0.92647059  1
  Cu  Cu1008  1  0.06722689  0.00000000  0.44117647  1
  Cu  Cu1009  1  0.06722689  0.16666667  0.44117647  1
  Cu  Cu1010  1  0.06722689  0.33333333  0.44117647  1
  Cu  Cu1011  1  0.06722689  0.50000000  0.44117647  1
  Cu  Cu1012  1  0.06722689  0.66666667  0.44117647  1
  Cu  Cu1013  1  0.06722689  0.83333333  0.44117647  1
  Cu  Cu1014  1  0.21008403  0.00000000  0.44117647  1
  Cu  Cu1015  1  0.21008403  0.16666667  0.44117647  1
  Cu  Cu1016  1  0.21008403  0.33333333  0.44117647  1
  Cu  Cu1017  1  0.21008403  0.50000000  0.44117647  1
  Cu  Cu1018  1  0.21008403  0.66666667  0.44117647  1
  Cu  Cu1019  1  0.21008403  0.83333333  0.44117647  1
  Cu  Cu1020  1  0.35294118  0.00000000  0.44117647  1
  Cu  Cu1021  1  0.35294118  0.16666667  0.44117647  1
  Cu  Cu1022  1  0.35294118  0.33333333  0.44117647  1
  Cu  Cu1023  1  0.35294118  0.50000000  0.44117647  1
  Cu  Cu1024  1  0.35294118  0.66666667  0.44117647  1
  Cu  Cu1025  1  0.35294118  0.83333333  0.44117647  1
  Cu  Cu1026  1  0.49579832  0.00000000  0.44117647  1
  Cu  Cu1027  1  0.49579832  0.16666667  0.44117647  1
  Cu  Cu1028  1  0.49579832  0.33333333  0.44117647  1
  Cu  Cu1029  1  0.49579832  0.50000000  0.44117647  1
  Cu  Cu1030  1  0.49579832  0.66666667  0.44117647  1
  Cu  Cu1031  1  0.49579832  0.83333333  0.44117647  1
  Cu  Cu1032  1  0.63865546  0.00000000  0.44117647  1
  Cu  Cu1033  1  0.63865546  0.16666667  0.44117647  1
  Cu  Cu1034  1  0.63865546  0.33333333  0.44117647  1
  Cu  Cu1035  1  0.63865546  0.50000000  0.44117647  1
  Cu  Cu1036  1  0.63865546  0.66666667  0.44117647  1
  Cu  Cu1037  1  0.63865546  0.83333333  0.44117647  1
  Cu  Cu1038  1  0.78151261  0.00000000  0.44117647  1
  Cu  Cu1039  1  0.78151261  0.16666667  0.44117647  1
  Cu  Cu1040  1  0.78151261  0.33333333  0.44117647  1
  Cu  Cu1041  1  0.78151261  0.50000000  0.44117647  1
  Cu  Cu1042  1  0.78151261  0.66666667  0.44117647  1
  Cu  Cu1043  1  0.78151261  0.83333333  0.44117647  1
  Cu  Cu1044  1  0.92436975  0.00000000  0.44117647  1
  Cu  Cu1045  1  0.92436975  0.16666667  0.44117647  1
  Cu  Cu1046  1  0.92436975  0.33333333  0.44117647  1
  Cu  Cu1047  1  0.92436975  0.50000000  0.44117647  1
  Cu  Cu1048  1  0.92436975  0.66666667  0.44117647  1
  Cu  Cu1049  1  0.92436975  0.83333333  0.44117647  1
  Cu  Cu1050  1  0.06722689  0.00000000  0.94117647  1
  Cu  Cu1051  1  0.06722689  0.16666667  0.94117647  1
  Cu  Cu1052  1  0.06722689  0.33333333  0.94117647  1
  Cu  Cu1053  1  0.06722689  0.50000000  0.94117647  1
  Cu  Cu1054  1  0.06722689  0.66666667  0.94117647  1
  Cu  Cu1055  1  0.06722689  0.83333333  0.94117647  1
  Cu  Cu1056  1  0.21008403  0.00000000  0.94117647  1
  Cu  Cu1057  1  0.21008403  0.16666667  0.94117647  1
  Cu  Cu1058  1  0.21008403  0.33333333  0.94117647  1
  Cu  Cu1059  1  0.21008403  0.50000000  0.94117647  1
  Cu  Cu1060  1  0.21008403  0.66666667  0.94117647  1
  Cu  Cu1061  1  0.21008403  0.83333333  0.94117647  1
  Cu  Cu1062  1  0.35294118  0.00000000  0.94117647  1
  Cu  Cu1063  1  0.35294118  0.16666667  0.94117647  1
  Cu  Cu1064  1  0.35294118  0.33333333  0.94117647  1
  Cu  Cu1065  1  0.35294118  0.50000000  0.94117647  1
  Cu  Cu1066  1  0.35294118  0.66666667  0.94117647  1
  Cu  Cu1067  1  0.35294118  0.83333333  0.94117647  1
  Cu  Cu1068  1  0.49579832  0.00000000  0.94117647  1
  Cu  Cu1069  1  0.49579832  0.16666667  0.94117647  1
  Cu  Cu1070  1  0.49579832  0.33333333  0.94117647  1
  Cu  Cu1071  1  0.49579832  0.50000000  0.94117647  1
  Cu  Cu1072  1  0.49579832  0.66666667  0.94117647  1
  Cu  Cu1073  1  0.49579832  0.83333333  0.94117647  1
  Cu  Cu1074  1  0.63865546  0.00000000  0.94117647  1
  Cu  Cu1075  1  0.63865546  0.16666667  0.94117647  1
  Cu  Cu1076  1  0.63865546  0.33333333  0.94117647  1
  Cu  Cu1077  1  0.63865546  0.50000000  0.94117647  1
  Cu  Cu1078  1  0.63865546  0.66666667  0.94117647  1
  Cu  Cu1079  1  0.63865546  0.83333333  0.94117647  1
  Cu  Cu1080  1  0.78151261  0.00000000  0.94117647  1
  Cu  Cu1081  1  0.78151261  0.16666667  0.94117647  1
  Cu  Cu1082  1  0.78151261  0.33333333  0.94117647  1
  Cu  Cu1083  1  0.78151261  0.50000000  0.94117647  1
  Cu  Cu1084  1  0.78151261  0.66666667  0.94117647  1
  Cu  Cu1085  1  0.78151261  0.83333333  0.94117647  1
  Cu  Cu1086  1  0.92436975  0.00000000  0.94117647  1
  Cu  Cu1087  1  0.92436975  0.16666667  0.94117647  1
  Cu  Cu1088  1  0.92436975  0.33333333  0.94117647  1
  Cu  Cu1089  1  0.92436975  0.50000000  0.94117647  1
  Cu  Cu1090  1  0.92436975  0.66666667  0.94117647  1
  Cu  Cu1091  1  0.92436975  0.83333333  0.94117647  1
  Cu  Cu1092  1  0.09663866  0.08333333  0.35294118  1
  Cu  Cu1093  1  0.09663866  0.25000000  0.35294118  1
  Cu  Cu1094  1  0.09663866  0.41666667  0.35294118  1
  Cu  Cu1095  1  0.09663866  0.58333333  0.35294118  1
  Cu  Cu1096  1  0.09663866  0.75000000  0.35294118  1
  Cu  Cu1097  1  0.09663866  0.91666667  0.35294118  1
  Cu  Cu1098  1  0.23949580  0.08333333  0.35294118  1
  Cu  Cu1099  1  0.23949580  0.25000000  0.35294118  1
  Cu  Cu1100  1  0.23949580  0.41666667  0.35294118  1
  Cu  Cu1101  1  0.23949580  0.58333333  0.35294118  1
  Cu  Cu1102  1  0.23949580  0.75000000  0.35294118  1
  Cu  Cu1103  1  0.23949580  0.91666667  0.35294118  1
  Cu  Cu1104  1  0.38235294  0.08333333  0.35294118  1
  Cu  Cu1105  1  0.38235294  0.25000000  0.35294118  1
  Cu  Cu1106  1  0.38235294  0.41666667  0.35294118  1
  Cu  Cu1107  1  0.38235294  0.58333333  0.35294118  1
  Cu  Cu1108  1  0.38235294  0.75000000  0.35294118  1
  Cu  Cu1109  1  0.38235294  0.91666667  0.35294118  1
  Cu  Cu1110  1  0.52521008  0.08333333  0.35294118  1
  Cu  Cu1111  1  0.52521008  0.25000000  0.35294118  1
  Cu  Cu1112  1  0.52521008  0.41666667  0.35294118  1
  Cu  Cu1113  1  0.52521008  0.58333333  0.35294118  1
  Cu  Cu1114  1  0.52521008  0.75000000  0.35294118  1
  Cu  Cu1115  1  0.52521008  0.91666667  0.35294118  1
  Cu  Cu1116  1  0.66806723  0.08333333  0.35294118  1
  Cu  Cu1117  1  0.66806723  0.25000000  0.35294118  1
  Cu  Cu1118  1  0.66806723  0.41666667  0.35294118  1
  Cu  Cu1119  1  0.66806723  0.58333333  0.35294118  1
  Cu  Cu1120  1  0.66806723  0.75000000  0.35294118  1
  Cu  Cu1121  1  0.66806723  0.91666667  0.35294118  1
  Cu  Cu1122  1  0.81092437  0.08333333  0.35294118  1
  Cu  Cu1123  1  0.81092437  0.25000000  0.35294118  1
  Cu  Cu1124  1  0.81092437  0.41666667  0.35294118  1
  Cu  Cu1125  1  0.81092437  0.58333333  0.35294118  1
  Cu  Cu1126  1  0.81092437  0.75000000  0.35294118  1
  Cu  Cu1127  1  0.81092437  0.91666667  0.35294118  1
  Cu  Cu1128  1  0.95378151  0.08333333  0.35294118  1
  Cu  Cu1129  1  0.95378151  0.25000000  0.35294118  1
  Cu  Cu1130  1  0.95378151  0.41666667  0.35294118  1
  Cu  Cu1131  1  0.95378151  0.58333333  0.35294118  1
  Cu  Cu1132  1  0.95378151  0.75000000  0.35294118  1
  Cu  Cu1133  1  0.95378151  0.91666667  0.35294118  1
  Cu  Cu1134  1  0.09663866  0.08333333  0.85294118  1
  Cu  Cu1135  1  0.09663866  0.25000000  0.85294118  1
  Cu  Cu1136  1  0.09663866  0.41666667  0.85294118  1
  Cu  Cu1137  1  0.09663866  0.58333333  0.85294118  1
  Cu  Cu1138  1  0.09663866  0.75000000  0.85294118  1
  Cu  Cu1139  1  0.09663866  0.91666667  0.85294118  1
  Cu  Cu1140  1  0.23949580  0.08333333  0.85294118  1
  Cu  Cu1141  1  0.23949580  0.25000000  0.85294118  1
  Cu  Cu1142  1  0.23949580  0.41666667  0.85294118  1
  Cu  Cu1143  1  0.23949580  0.58333333  0.85294118  1
  Cu  Cu1144  1  0.23949580  0.75000000  0.85294118  1
  Cu  Cu1145  1  0.23949580  0.91666667  0.85294118  1
  Cu  Cu1146  1  0.38235294  0.08333333  0.85294118  1
  Cu  Cu1147  1  0.38235294  0.25000000  0.85294118  1
  Cu  Cu1148  1  0.38235294  0.41666667  0.85294118  1
  Cu  Cu1149  1  0.38235294  0.58333333  0.85294118  1
  Cu  Cu1150  1  0.38235294  0.75000000  0.85294118  1
  Cu  Cu1151  1  0.38235294  0.91666667  0.85294118  1
  Cu  Cu1152  1  0.52521008  0.08333333  0.85294118  1
  Cu  Cu1153  1  0.52521008  0.25000000  0.85294118  1
  Cu  Cu1154  1  0.52521008  0.41666667  0.85294118  1
  Cu  Cu1155  1  0.52521008  0.58333333  0.85294118  1
  Cu  Cu1156  1  0.52521008  0.75000000  0.85294118  1
  Cu  Cu1157  1  0.52521008  0.91666667  0.85294118  1
  Cu  Cu1158  1  0.66806723  0.08333333  0.85294118  1
  Cu  Cu1159  1  0.66806723  0.25000000  0.85294118  1
  Cu  Cu1160  1  0.66806723  0.41666667  0.85294118  1
  Cu  Cu1161  1  0.66806723  0.58333333  0.85294118  1
  Cu  Cu1162  1  0.66806723  0.75000000  0.85294118  1
  Cu  Cu1163  1  0.66806723  0.91666667  0.85294118  1
  Cu  Cu1164  1  0.81092437  0.08333333  0.85294118  1
  Cu  Cu1165  1  0.81092437  0.25000000  0.85294118  1
  Cu  Cu1166  1  0.81092437  0.41666667  0.85294118  1
  Cu  Cu1167  1  0.81092437  0.58333333  0.85294118  1
  Cu  Cu1168  1  0.81092437  0.75000000  0.85294118  1
  Cu  Cu1169  1  0.81092437  0.91666667  0.85294118  1
  Cu  Cu1170  1  0.95378151  0.08333333  0.85294118  1
  Cu  Cu1171  1  0.95378151  0.25000000  0.85294118  1
  Cu  Cu1172  1  0.95378151  0.41666667  0.85294118  1
  Cu  Cu1173  1  0.95378151  0.58333333  0.85294118  1
  Cu  Cu1174  1  0.95378151  0.75000000  0.85294118  1
  Cu  Cu1175  1  0.95378151  0.91666667  0.85294118  1
  Cu  Cu1176  1  0.07983193  0.00000000  0.36764706  1
  Cu  Cu1177  1  0.07983193  0.16666667  0.36764706  1
  Cu  Cu1178  1  0.07983193  0.33333333  0.36764706  1
  Cu  Cu1179  1  0.07983193  0.50000000  0.36764706  1
  Cu  Cu1180  1  0.07983193  0.66666667  0.36764706  1
  Cu  Cu1181  1  0.07983193  0.83333333  0.36764706  1
  Cu  Cu1182  1  0.22268908  0.00000000  0.36764706  1
  Cu  Cu1183  1  0.22268908  0.16666667  0.36764706  1
  Cu  Cu1184  1  0.22268908  0.33333333  0.36764706  1
  Cu  Cu1185  1  0.22268908  0.50000000  0.36764706  1
  Cu  Cu1186  1  0.22268908  0.66666667  0.36764706  1
  Cu  Cu1187  1  0.22268908  0.83333333  0.36764706  1
  Cu  Cu1188  1  0.36554622  0.00000000  0.36764706  1
  Cu  Cu1189  1  0.36554622  0.16666667  0.36764706  1
  Cu  Cu1190  1  0.36554622  0.33333333  0.36764706  1
  Cu  Cu1191  1  0.36554622  0.50000000  0.36764706  1
  Cu  Cu1192  1  0.36554622  0.66666667  0.36764706  1
  Cu  Cu1193  1  0.36554622  0.83333333  0.36764706  1
  Cu  Cu1194  1  0.50840336  0.00000000  0.36764706  1
  Cu  Cu1195  1  0.50840336  0.16666667  0.36764706  1
  Cu  Cu1196  1  0.50840336  0.33333333  0.36764706  1
  Cu  Cu1197  1  0.50840336  0.50000000  0.36764706  1
  Cu  Cu1198  1  0.50840336  0.66666667  0.36764706  1
  Cu  Cu1199  1  0.50840336  0.83333333  0.36764706  1
  Cu  Cu1200  1  0.65126050  0.00000000  0.36764706  1
  Cu  Cu1201  1  0.65126050  0.16666667  0.36764706  1
  Cu  Cu1202  1  0.65126050  0.33333333  0.36764706  1
  Cu  Cu1203  1  0.65126050  0.50000000  0.36764706  1
  Cu  Cu1204  1  0.65126050  0.66666667  0.36764706  1
  Cu  Cu1205  1  0.65126050  0.83333333  0.36764706  1
  Cu  Cu1206  1  0.79411765  0.00000000  0.36764706  1
  Cu  Cu1207  1  0.79411765  0.16666667  0.36764706  1
  Cu  Cu1208  1  0.79411765  0.33333333  0.36764706  1
  Cu  Cu1209  1  0.79411765  0.50000000  0.36764706  1
  Cu  Cu1210  1  0.79411765  0.66666667  0.36764706  1
  Cu  Cu1211  1  0.79411765  0.83333333  0.36764706  1
  Cu  Cu1212  1  0.93697479  0.00000000  0.36764706  1
  Cu  Cu1213  1  0.93697479  0.16666667  0.36764706  1
  Cu  Cu1214  1  0.93697479  0.33333333  0.36764706  1
  Cu  Cu1215  1  0.93697479  0.50000000  0.36764706  1
  Cu  Cu1216  1  0.93697479  0.66666667  0.36764706  1
  Cu  Cu1217  1  0.93697479  0.83333333  0.36764706  1
  Cu  Cu1218  1  0.07983193  0.00000000  0.86764706  1
  Cu  Cu1219  1  0.07983193  0.16666667  0.86764706  1
  Cu  Cu1220  1  0.07983193  0.33333333  0.86764706  1
  Cu  Cu1221  1  0.07983193  0.50000000  0.86764706  1
  Cu  Cu1222  1  0.07983193  0.66666667  0.86764706  1
  Cu  Cu1223  1  0.07983193  0.83333333  0.86764706  1
  Cu  Cu1224  1  0.22268908  0.00000000  0.86764706  1
  Cu  Cu1225  1  0.22268908  0.16666667  0.86764706  1
  Cu  Cu1226  1  0.22268908  0.33333333  0.86764706  1
  Cu  Cu1227  1  0.22268908  0.50000000  0.86764706  1
  Cu  Cu1228  1  0.22268908  0.66666667  0.86764706  1
  Cu  Cu1229  1  0.22268908  0.83333333  0.86764706  1
  Cu  Cu1230  1  0.36554622  0.00000000  0.86764706  1
  Cu  Cu1231  1  0.36554622  0.16666667  0.86764706  1
  Cu  Cu1232  1  0.36554622  0.33333333  0.86764706  1
  Cu  Cu1233  1  0.36554622  0.50000000  0.86764706  1
  Cu  Cu1234  1  0.36554622  0.66666667  0.86764706  1
  Cu  Cu1235  1  0.36554622  0.83333333  0.86764706  1
  Cu  Cu1236  1  0.50840336  0.00000000  0.86764706  1
  Cu  Cu1237  1  0.50840336  0.16666667  0.86764706  1
  Cu  Cu1238  1  0.50840336  0.33333333  0.86764706  1
  Cu  Cu1239  1  0.50840336  0.50000000  0.86764706  1
  Cu  Cu1240  1  0.50840336  0.66666667  0.86764706  1
  Cu  Cu1241  1  0.50840336  0.83333333  0.86764706  1
  Cu  Cu1242  1  0.65126050  0.00000000  0.86764706  1
  Cu  Cu1243  1  0.65126050  0.16666667  0.86764706  1
  Cu  Cu1244  1  0.65126050  0.33333333  0.86764706  1
  Cu  Cu1245  1  0.65126050  0.50000000  0.86764706  1
  Cu  Cu1246  1  0.65126050  0.66666667  0.86764706  1
  Cu  Cu1247  1  0.65126050  0.83333333  0.86764706  1
  Cu  Cu1248  1  0.79411765  0.00000000  0.86764706  1
  Cu  Cu1249  1  0.79411765  0.16666667  0.86764706  1
  Cu  Cu1250  1  0.79411765  0.33333333  0.86764706  1
  Cu  Cu1251  1  0.79411765  0.50000000  0.86764706  1
  Cu  Cu1252  1  0.79411765  0.66666667  0.86764706  1
  Cu  Cu1253  1  0.79411765  0.83333333  0.86764706  1
  Cu  Cu1254  1  0.93697479  0.00000000  0.86764706  1
  Cu  Cu1255  1  0.93697479  0.16666667  0.86764706  1
  Cu  Cu1256  1  0.93697479  0.33333333  0.86764706  1
  Cu  Cu1257  1  0.93697479  0.50000000  0.86764706  1
  Cu  Cu1258  1  0.93697479  0.66666667  0.86764706  1
  Cu  Cu1259  1  0.93697479  0.83333333  0.86764706  1
  Cu  Cu1260  1  0.10924370  0.08333333  0.27941176  1
  Cu  Cu1261  1  0.10924370  0.25000000  0.27941176  1
  Cu  Cu1262  1  0.10924370  0.41666667  0.27941176  1
  Cu  Cu1263  1  0.10924370  0.58333333  0.27941176  1
  Cu  Cu1264  1  0.10924370  0.75000000  0.27941176  1
  Cu  Cu1265  1  0.10924370  0.91666667  0.27941176  1
  Cu  Cu1266  1  0.25210084  0.08333333  0.27941176  1
  Cu  Cu1267  1  0.25210084  0.25000000  0.27941176  1
  Cu  Cu1268  1  0.25210084  0.41666667  0.27941176  1
  Cu  Cu1269  1  0.25210084  0.58333333  0.27941176  1
  Cu  Cu1270  1  0.25210084  0.75000000  0.27941176  1
  Cu  Cu1271  1  0.25210084  0.91666667  0.27941176  1
  Cu  Cu1272  1  0.39495798  0.08333333  0.27941176  1
  Cu  Cu1273  1  0.39495798  0.25000000  0.27941176  1
  Cu  Cu1274  1  0.39495798  0.41666667  0.27941176  1
  Cu  Cu1275  1  0.39495798  0.58333333  0.27941176  1
  Cu  Cu1276  1  0.39495798  0.75000000  0.27941176  1
  Cu  Cu1277  1  0.39495798  0.91666667  0.27941176  1
  Cu  Cu1278  1  0.53781513  0.08333333  0.27941176  1
  Cu  Cu1279  1  0.53781513  0.25000000  0.27941176  1
  Cu  Cu1280  1  0.53781513  0.41666667  0.27941176  1
  Cu  Cu1281  1  0.53781513  0.58333333  0.27941176  1
  Cu  Cu1282  1  0.53781513  0.75000000  0.27941176  1
  Cu  Cu1283  1  0.53781513  0.91666667  0.27941176  1
  Cu  Cu1284  1  0.68067227  0.08333333  0.27941176  1
  Cu  Cu1285  1  0.68067227  0.25000000  0.27941176  1
  Cu  Cu1286  1  0.68067227  0.41666667  0.27941176  1
  Cu  Cu1287  1  0.68067227  0.58333333  0.27941176  1
  Cu  Cu1288  1  0.68067227  0.75000000  0.27941176  1
  Cu  Cu1289  1  0.68067227  0.91666667  0.27941176  1
  Cu  Cu1290  1  0.82352941  0.08333333  0.27941176  1
  Cu  Cu1291  1  0.82352941  0.25000000  0.27941176  1
  Cu  Cu1292  1  0.82352941  0.41666667  0.27941176  1
  Cu  Cu1293  1  0.82352941  0.58333333  0.27941176  1
  Cu  Cu1294  1  0.82352941  0.75000000  0.27941176  1
  Cu  Cu1295  1  0.82352941  0.91666667  0.27941176  1
  Cu  Cu1296  1  0.96638655  0.08333333  0.27941176  1
  Cu  Cu1297  1  0.96638655  0.25000000  0.27941176  1
  Cu  Cu1298  1  0.96638655  0.41666667  0.27941176  1
  Cu  Cu1299  1  0.96638655  0.58333333  0.27941176  1
  Cu  Cu1300  1  0.96638655  0.75000000  0.27941176  1
  Cu  Cu1301  1  0.96638655  0.91666667  0.27941176  1
  Cu  Cu1302  1  0.10924370  0.08333333  0.77941176  1
  Cu  Cu1303  1  0.10924370  0.25000000  0.77941176  1
  Cu  Cu1304  1  0.10924370  0.41666667  0.77941176  1
  Cu  Cu1305  1  0.10924370  0.58333333  0.77941176  1
  Cu  Cu1306  1  0.10924370  0.75000000  0.77941176  1
  Cu  Cu1307  1  0.10924370  0.91666667  0.77941176  1
  Cu  Cu1308  1  0.25210084  0.08333333  0.77941176  1
  Cu  Cu1309  1  0.25210084  0.25000000  0.77941176  1
  Cu  Cu1310  1  0.25210084  0.41666667  0.77941176  1
  Cu  Cu1311  1  0.25210084  0.58333333  0.77941176  1
  Cu  Cu1312  1  0.25210084  0.75000000  0.77941176  1
  Cu  Cu1313  1  0.25210084  0.91666667  0.77941176  1
  Cu  Cu1314  1  0.39495798  0.08333333  0.77941176  1
  Cu  Cu1315  1  0.39495798  0.25000000  0.77941176  1
  Cu  Cu1316  1  0.39495798  0.41666667  0.77941176  1
  Cu  Cu1317  1  0.39495798  0.58333333  0.77941176  1
  Cu  Cu1318  1  0.39495798  0.75000000  0.77941176  1
  Cu  Cu1319  1  0.39495798  0.91666667  0.77941176  1
  Cu  Cu1320  1  0.53781513  0.08333333  0.77941176  1
  Cu  Cu1321  1  0.53781513  0.25000000  0.77941176  1
  Cu  Cu1322  1  0.53781513  0.41666667  0.77941176  1
  Cu  Cu1323  1  0.53781513  0.58333333  0.77941176  1
  Cu  Cu1324  1  0.53781513  0.75000000  0.77941176  1
  Cu  Cu1325  1  0.53781513  0.91666667  0.77941176  1
  Cu  Cu1326  1  0.68067227  0.08333333  0.77941176  1
  Cu  Cu1327  1  0.68067227  0.25000000  0.77941176  1
  Cu  Cu1328  1  0.68067227  0.41666667  0.77941176  1
  Cu  Cu1329  1  0.68067227  0.58333333  0.77941176  1
  Cu  Cu1330  1  0.68067227  0.75000000  0.77941176  1
  Cu  Cu1331  1  0.68067227  0.91666667  0.77941176  1
  Cu  Cu1332  1  0.82352941  0.08333333  0.77941176  1
  Cu  Cu1333  1  0.82352941  0.25000000  0.77941176  1
  Cu  Cu1334  1  0.82352941  0.41666667  0.77941176  1
  Cu  Cu1335  1  0.82352941  0.58333333  0.77941176  1
  Cu  Cu1336  1  0.82352941  0.75000000  0.77941176  1
  Cu  Cu1337  1  0.82352941  0.91666667  0.77941176  1
  Cu  Cu1338  1  0.96638655  0.08333333  0.77941176  1
  Cu  Cu1339  1  0.96638655  0.25000000  0.77941176  1
  Cu  Cu1340  1  0.96638655  0.41666667  0.77941176  1
  Cu  Cu1341  1  0.96638655  0.58333333  0.77941176  1
  Cu  Cu1342  1  0.96638655  0.75000000  0.77941176  1
  Cu  Cu1343  1  0.96638655  0.91666667  0.77941176  1
  Cu  Cu1344  1  0.09243697  0.00000000  0.29411765  1
  Cu  Cu1345  1  0.09243697  0.16666667  0.29411765  1
  Cu  Cu1346  1  0.09243697  0.33333333  0.29411765  1
  Cu  Cu1347  1  0.09243697  0.50000000  0.29411765  1
  Cu  Cu1348  1  0.09243697  0.66666667  0.29411765  1
  Cu  Cu1349  1  0.09243697  0.83333333  0.29411765  1
  Cu  Cu1350  1  0.23529412  0.00000000  0.29411765  1
  Cu  Cu1351  1  0.23529412  0.16666667  0.29411765  1
  Cu  Cu1352  1  0.23529412  0.33333333  0.29411765  1
  Cu  Cu1353  1  0.23529412  0.50000000  0.29411765  1
  Cu  Cu1354  1  0.23529412  0.66666667  0.29411765  1
  Cu  Cu1355  1  0.23529412  0.83333333  0.29411765  1
  Cu  Cu1356  1  0.37815126  0.00000000  0.29411765  1
  Cu  Cu1357  1  0.37815126  0.16666667  0.29411765  1
  Cu  Cu1358  1  0.37815126  0.33333333  0.29411765  1
  Cu  Cu1359  1  0.37815126  0.50000000  0.29411765  1
  Cu  Cu1360  1  0.37815126  0.66666667  0.29411765  1
  Cu  Cu1361  1  0.37815126  0.83333333  0.29411765  1
  Cu  Cu1362  1  0.52100840  0.00000000  0.29411765  1
  Cu  Cu1363  1  0.52100840  0.16666667  0.29411765  1
  Cu  Cu1364  1  0.52100840  0.33333333  0.29411765  1
  Cu  Cu1365  1  0.52100840  0.50000000  0.29411765  1
  Cu  Cu1366  1  0.52100840  0.66666667  0.29411765  1
  Cu  Cu1367  1  0.52100840  0.83333333  0.29411765  1
  Cu  Cu1368  1  0.66386555  0.00000000  0.29411765  1
  Cu  Cu1369  1  0.66386555  0.16666667  0.29411765  1
  Cu  Cu1370  1  0.66386555  0.33333333  0.29411765  1
  Cu  Cu1371  1  0.66386555  0.50000000  0.29411765  1
  Cu  Cu1372  1  0.66386555  0.66666667  0.29411765  1
  Cu  Cu1373  1  0.66386555  0.83333333  0.29411765  1
  Cu  Cu1374  1  0.80672269  0.00000000  0.29411765  1
  Cu  Cu1375  1  0.80672269  0.16666667  0.29411765  1
  Cu  Cu1376  1  0.80672269  0.33333333  0.29411765  1
  Cu  Cu1377  1  0.80672269  0.50000000  0.29411765  1
  Cu  Cu1378  1  0.80672269  0.66666667  0.29411765  1
  Cu  Cu1379  1  0.80672269  0.83333333  0.29411765  1
  Cu  Cu1380  1  0.94957983  0.00000000  0.29411765  1
  Cu  Cu1381  1  0.94957983  0.16666667  0.29411765  1
  Cu  Cu1382  1  0.94957983  0.33333333  0.29411765  1
  Cu  Cu1383  1  0.94957983  0.50000000  0.29411765  1
  Cu  Cu1384  1  0.94957983  0.66666667  0.29411765  1
  Cu  Cu1385  1  0.94957983  0.83333333  0.29411765  1
  Cu  Cu1386  1  0.09243697  0.00000000  0.79411765  1
  Cu  Cu1387  1  0.09243697  0.16666667  0.79411765  1
  Cu  Cu1388  1  0.09243697  0.33333333  0.79411765  1
  Cu  Cu1389  1  0.09243697  0.50000000  0.79411765  1
  Cu  Cu1390  1  0.09243697  0.66666667  0.79411765  1
  Cu  Cu1391  1  0.09243697  0.83333333  0.79411765  1
  Cu  Cu1392  1  0.23529412  0.00000000  0.79411765  1
  Cu  Cu1393  1  0.23529412  0.16666667  0.79411765  1
  Cu  Cu1394  1  0.23529412  0.33333333  0.79411765  1
  Cu  Cu1395  1  0.23529412  0.50000000  0.79411765  1
  Cu  Cu1396  1  0.23529412  0.66666667  0.79411765  1
  Cu  Cu1397  1  0.23529412  0.83333333  0.79411765  1
  Cu  Cu1398  1  0.37815126  0.00000000  0.79411765  1
  Cu  Cu1399  1  0.37815126  0.16666667  0.79411765  1
  Cu  Cu1400  1  0.37815126  0.33333333  0.79411765  1
  Cu  Cu1401  1  0.37815126  0.50000000  0.79411765  1
  Cu  Cu1402  1  0.37815126  0.66666667  0.79411765  1
  Cu  Cu1403  1  0.37815126  0.83333333  0.79411765  1
  Cu  Cu1404  1  0.52100840  0.00000000  0.79411765  1
  Cu  Cu1405  1  0.52100840  0.16666667  0.79411765  1
  Cu  Cu1406  1  0.52100840  0.33333333  0.79411765  1
  Cu  Cu1407  1  0.52100840  0.50000000  0.79411765  1
  Cu  Cu1408  1  0.52100840  0.66666667  0.79411765  1
  Cu  Cu1409  1  0.52100840  0.83333333  0.79411765  1
  Cu  Cu1410  1  0.66386555  0.00000000  0.79411765  1
  Cu  Cu1411  1  0.66386555  0.16666667  0.79411765  1
  Cu  Cu1412  1  0.66386555  0.33333333  0.79411765  1
  Cu  Cu1413  1  0.66386555  0.50000000  0.79411765  1
  Cu  Cu1414  1  0.66386555  0.66666667  0.79411765  1
  Cu  Cu1415  1  0.66386555  0.83333333  0.79411765  1
  Cu  Cu1416  1  0.80672269  0.00000000  0.79411765  1
  Cu  Cu1417  1  0.80672269  0.16666667  0.79411765  1
  Cu  Cu1418  1  0.80672269  0.33333333  0.79411765  1
  Cu  Cu1419  1  0.80672269  0.50000000  0.79411765  1
  Cu  Cu1420  1  0.80672269  0.66666667  0.79411765  1
  Cu  Cu1421  1  0.80672269  0.83333333  0.79411765  1
  Cu  Cu1422  1  0.94957983  0.00000000  0.79411765  1
  Cu  Cu1423  1  0.94957983  0.16666667  0.79411765  1
  Cu  Cu1424  1  0.94957983  0.33333333  0.79411765  1
  Cu  Cu1425  1  0.94957983  0.50000000  0.79411765  1
  Cu  Cu1426  1  0.94957983  0.66666667  0.79411765  1
  Cu  Cu1427  1  0.94957983  0.83333333  0.79411765  1
  Cu  Cu1428  1  0.12184874  0.08333333  0.20588235  1
  Cu  Cu1429  1  0.12184874  0.25000000  0.20588235  1
  Cu  Cu1430  1  0.12184874  0.41666667  0.20588235  1
  Cu  Cu1431  1  0.12184874  0.58333333  0.20588235  1
  Cu  Cu1432  1  0.12184874  0.75000000  0.20588235  1
  Cu  Cu1433  1  0.12184874  0.91666667  0.20588235  1
  Cu  Cu1434  1  0.26470588  0.08333333  0.20588235  1
  Cu  Cu1435  1  0.26470588  0.25000000  0.20588235  1
  Cu  Cu1436  1  0.26470588  0.41666667  0.20588235  1
  Cu  Cu1437  1  0.26470588  0.58333333  0.20588235  1
  Cu  Cu1438  1  0.26470588  0.75000000  0.20588235  1
  Cu  Cu1439  1  0.26470588  0.91666667  0.20588235  1
  Cu  Cu1440  1  0.40756303  0.08333333  0.20588235  1
  Cu  Cu1441  1  0.40756303  0.25000000  0.20588235  1
  Cu  Cu1442  1  0.40756303  0.41666667  0.20588235  1
  Cu  Cu1443  1  0.40756303  0.58333333  0.20588235  1
  Cu  Cu1444  1  0.40756303  0.75000000  0.20588235  1
  Cu  Cu1445  1  0.40756303  0.91666667  0.20588235  1
  Cu  Cu1446  1  0.55042017  0.08333333  0.20588235  1
  Cu  Cu1447  1  0.55042017  0.25000000  0.20588235  1
  Cu  Cu1448  1  0.55042017  0.41666667  0.20588235  1
  Cu  Cu1449  1  0.55042017  0.58333333  0.20588235  1
  Cu  Cu1450  1  0.55042017  0.75000000  0.20588235  1
  Cu  Cu1451  1  0.55042017  0.91666667  0.20588235  1
  Cu  Cu1452  1  0.69327731  0.08333333  0.20588235  1
  Cu  Cu1453  1  0.69327731  0.25000000  0.20588235  1
  Cu  Cu1454  1  0.69327731  0.41666667  0.20588235  1
  Cu  Cu1455  1  0.69327731  0.58333333  0.20588235  1
  Cu  Cu1456  1  0.69327731  0.75000000  0.20588235  1
  Cu  Cu1457  1  0.69327731  0.91666667  0.20588235  1
  Cu  Cu1458  1  0.83613445  0.08333333  0.20588235  1
  Cu  Cu1459  1  0.83613445  0.25000000  0.20588235  1
  Cu  Cu1460  1  0.83613445  0.41666667  0.20588235  1
  Cu  Cu1461  1  0.83613445  0.58333333  0.20588235  1
  Cu  Cu1462  1  0.83613445  0.75000000  0.20588235  1
  Cu  Cu1463  1  0.83613445  0.91666667  0.20588235  1
  Cu  Cu1464  1  0.97899160  0.08333333  0.20588235  1
  Cu  Cu1465  1  0.97899160  0.25000000  0.20588235  1
  Cu  Cu1466  1  0.97899160  0.41666667  0.20588235  1
  Cu  Cu1467  1  0.97899160  0.58333333  0.20588235  1
  Cu  Cu1468  1  0.97899160  0.75000000  0.20588235  1
  Cu  Cu1469  1  0.97899160  0.91666667  0.20588235  1
  Cu  Cu1470  1  0.12184874  0.08333333  0.70588235  1
  Cu  Cu1471  1  0.12184874  0.25000000  0.70588235  1
  Cu  Cu1472  1  0.12184874  0.41666667  0.70588235  1
  Cu  Cu1473  1  0.12184874  0.58333333  0.70588235  1
  Cu  Cu1474  1  0.12184874  0.75000000  0.70588235  1
  Cu  Cu1475  1  0.12184874  0.91666667  0.70588235  1
  Cu  Cu1476  1  0.26470588  0.08333333  0.70588235  1
  Cu  Cu1477  1  0.26470588  0.25000000  0.70588235  1
  Cu  Cu1478  1  0.26470588  0.41666667  0.70588235  1
  Cu  Cu1479  1  0.26470588  0.58333333  0.70588235  1
  Cu  Cu1480  1  0.26470588  0.75000000  0.70588235  1
  Cu  Cu1481  1  0.26470588  0.91666667  0.70588235  1
  Cu  Cu1482  1  0.40756303  0.08333333  0.70588235  1
  Cu  Cu1483  1  0.40756303  0.25000000  0.70588235  1
  Cu  Cu1484  1  0.40756303  0.41666667  0.70588235  1
  Cu  Cu1485  1  0.40756303  0.58333333  0.70588235  1
  Cu  Cu1486  1  0.40756303  0.75000000  0.70588235  1
  Cu  Cu1487  1  0.40756303  0.91666667  0.70588235  1
  Cu  Cu1488  1  0.55042017  0.08333333  0.70588235  1
  Cu  Cu1489  1  0.55042017  0.25000000  0.70588235  1
  Cu  Cu1490  1  0.55042017  0.41666667  0.70588235  1
  Cu  Cu1491  1  0.55042017  0.58333333  0.70588235  1
  Cu  Cu1492  1  0.55042017  0.75000000  0.70588235  1
  Cu  Cu1493  1  0.55042017  0.91666667  0.70588235  1
  Cu  Cu1494  1  0.69327731  0.08333333  0.70588235  1
  Cu  Cu1495  1  0.69327731  0.25000000  0.70588235  1
  Cu  Cu1496  1  0.69327731  0.41666667  0.70588235  1
  Cu  Cu1497  1  0.69327731  0.58333333  0.70588235  1
  Cu  Cu1498  1  0.69327731  0.75000000  0.70588235  1
  Cu  Cu1499  1  0.69327731  0.91666667  0.70588235  1
  Cu  Cu1500  1  0.83613445  0.08333333  0.70588235  1
  Cu  Cu1501  1  0.83613445  0.25000000  0.70588235  1
  Cu  Cu1502  1  0.83613445  0.41666667  0.70588235  1
  Cu  Cu1503  1  0.83613445  0.58333333  0.70588235  1
  Cu  Cu1504  1  0.83613445  0.75000000  0.70588235  1
  Cu  Cu1505  1  0.83613445  0.91666667  0.70588235  1
  Cu  Cu1506  1  0.97899160  0.08333333  0.70588235  1
  Cu  Cu1507  1  0.97899160  0.25000000  0.70588235  1
  Cu  Cu1508  1  0.97899160  0.41666667  0.70588235  1
  Cu  Cu1509  1  0.97899160  0.58333333  0.70588235  1
  Cu  Cu1510  1  0.97899160  0.75000000  0.70588235  1
  Cu  Cu1511  1  0.97899160  0.91666667  0.70588235  1
  Cu  Cu1512  1  0.10504202  0.00000000  0.22058824  1
  Cu  Cu1513  1  0.10504202  0.16666667  0.22058824  1
  Cu  Cu1514  1  0.10504202  0.33333333  0.22058824  1
  Cu  Cu1515  1  0.10504202  0.50000000  0.22058824  1
  Cu  Cu1516  1  0.10504202  0.66666667  0.22058824  1
  Cu  Cu1517  1  0.10504202  0.83333333  0.22058824  1
  Cu  Cu1518  1  0.24789916  0.00000000  0.22058824  1
  Cu  Cu1519  1  0.24789916  0.16666667  0.22058824  1
  Cu  Cu1520  1  0.24789916  0.33333333  0.22058824  1
  Cu  Cu1521  1  0.24789916  0.50000000  0.22058824  1
  Cu  Cu1522  1  0.24789916  0.66666667  0.22058824  1
  Cu  Cu1523  1  0.24789916  0.83333333  0.22058824  1
  Cu  Cu1524  1  0.39075630  0.00000000  0.22058824  1
  Cu  Cu1525  1  0.39075630  0.16666667  0.22058824  1
  Cu  Cu1526  1  0.39075630  0.33333333  0.22058824  1
  Cu  Cu1527  1  0.39075630  0.50000000  0.22058824  1
  Cu  Cu1528  1  0.39075630  0.66666667  0.22058824  1
  Cu  Cu1529  1  0.39075630  0.83333333  0.22058824  1
  Cu  Cu1530  1  0.53361345  0.00000000  0.22058824  1
  Cu  Cu1531  1  0.53361345  0.16666667  0.22058824  1
  Cu  Cu1532  1  0.53361345  0.33333333  0.22058824  1
  Cu  Cu1533  1  0.53361345  0.50000000  0.22058824  1
  Cu  Cu1534  1  0.53361345  0.66666667  0.22058824  1
  Cu  Cu1535  1  0.53361345  0.83333333  0.22058824  1
  Cu  Cu1536  1  0.67647059  0.00000000  0.22058824  1
  Cu  Cu1537  1  0.67647059  0.16666667  0.22058824  1
  Cu  Cu1538  1  0.67647059  0.33333333  0.22058824  1
  Cu  Cu1539  1  0.67647059  0.50000000  0.22058824  1
  Cu  Cu1540  1  0.67647059  0.66666667  0.22058824  1
  Cu  Cu1541  1  0.67647059  0.83333333  0.22058824  1
  Cu  Cu1542  1  0.81932773  0.00000000  0.22058824  1
  Cu  Cu1543  1  0.81932773  0.16666667  0.22058824  1
  Cu  Cu1544  1  0.81932773  0.33333333  0.22058824  1
  Cu  Cu1545  1  0.81932773  0.50000000  0.22058824  1
  Cu  Cu1546  1  0.81932773  0.66666667  0.22058824  1
  Cu  Cu1547  1  0.81932773  0.83333333  0.22058824  1
  Cu  Cu1548  1  0.96218487  0.00000000  0.22058824  1
  Cu  Cu1549  1  0.96218487  0.16666667  0.22058824  1
  Cu  Cu1550  1  0.96218487  0.33333333  0.22058824  1
  Cu  Cu1551  1  0.96218487  0.50000000  0.22058824  1
  Cu  Cu1552  1  0.96218487  0.66666667  0.22058824  1
  Cu  Cu1553  1  0.96218487  0.83333333  0.22058824  1
  Cu  Cu1554  1  0.10504202  0.00000000  0.72058824  1
  Cu  Cu1555  1  0.10504202  0.16666667  0.72058824  1
  Cu  Cu1556  1  0.10504202  0.33333333  0.72058824  1
  Cu  Cu1557  1  0.10504202  0.50000000  0.72058824  1
  Cu  Cu1558  1  0.10504202  0.66666667  0.72058824  1
  Cu  Cu1559  1  0.10504202  0.83333333  0.72058824  1
  Cu  Cu1560  1  0.24789916  0.00000000  0.72058824  1
  Cu  Cu1561  1  0.24789916  0.16666667  0.72058824  1
  Cu  Cu1562  1  0.24789916  0.33333333  0.72058824  1
  Cu  Cu1563  1  0.24789916  0.50000000  0.72058824  1
  Cu  Cu1564  1  0.24789916  0.66666667  0.72058824  1
  Cu  Cu1565  1  0.24789916  0.83333333  0.72058824  1
  Cu  Cu1566  1  0.39075630  0.00000000  0.72058824  1
  Cu  Cu1567  1  0.39075630  0.16666667  0.72058824  1
  Cu  Cu1568  1  0.39075630  0.33333333  0.72058824  1
  Cu  Cu1569  1  0.39075630  0.50000000  0.72058824  1
  Cu  Cu1570  1  0.39075630  0.66666667  0.72058824  1
  Cu  Cu1571  1  0.39075630  0.83333333  0.72058824  1
  Cu  Cu1572  1  0.53361345  0.00000000  0.72058824  1
  Cu  Cu1573  1  0.53361345  0.16666667  0.72058824  1
  Cu  Cu1574  1  0.53361345  0.33333333  0.72058824  1
  Cu  Cu1575  1  0.53361345  0.50000000  0.72058824  1
  Cu  Cu1576  1  0.53361345  0.66666667  0.72058824  1
  Cu  Cu1577  1  0.53361345  0.83333333  0.72058824  1
  Cu  Cu1578  1  0.67647059  0.00000000  0.72058824  1
  Cu  Cu1579  1  0.67647059  0.16666667  0.72058824  1
  Cu  Cu1580  1  0.67647059  0.33333333  0.72058824  1
  Cu  Cu1581  1  0.67647059  0.50000000  0.72058824  1
  Cu  Cu1582  1  0.67647059  0.66666667  0.72058824  1
  Cu  Cu1583  1  0.67647059  0.83333333  0.72058824  1
  Cu  Cu1584  1  0.81932773  0.00000000  0.72058824  1
  Cu  Cu1585  1  0.81932773  0.16666667  0.72058824  1
  Cu  Cu1586  1  0.81932773  0.33333333  0.72058824  1
  Cu  Cu1587  1  0.81932773  0.50000000  0.72058824  1
  Cu  Cu1588  1  0.81932773  0.66666667  0.72058824  1
  Cu  Cu1589  1  0.81932773  0.83333333  0.72058824  1
  Cu  Cu1590  1  0.96218487  0.00000000  0.72058824  1
  Cu  Cu1591  1  0.96218487  0.16666667  0.72058824  1
  Cu  Cu1592  1  0.96218487  0.33333333  0.72058824  1
  Cu  Cu1593  1  0.96218487  0.50000000  0.72058824  1
  Cu  Cu1594  1  0.96218487  0.66666667  0.72058824  1
  Cu  Cu1595  1  0.96218487  0.83333333  0.72058824  1
  Cu  Cu1596  1  0.13445378  0.08333333  0.13235294  1
  Cu  Cu1597  1  0.13445378  0.25000000  0.13235294  1
  Cu  Cu1598  1  0.13445378  0.41666667  0.13235294  1
  Cu  Cu1599  1  0.13445378  0.58333333  0.13235294  1
  Cu  Cu1600  1  0.13445378  0.75000000  0.13235294  1
  Cu  Cu1601  1  0.13445378  0.91666667  0.13235294  1
  Cu  Cu1602  1  0.27731092  0.08333333  0.13235294  1
  Cu  Cu1603  1  0.27731092  0.25000000  0.13235294  1
  Cu  Cu1604  1  0.27731092  0.41666667  0.13235294  1
  Cu  Cu1605  1  0.27731092  0.58333333  0.13235294  1
  Cu  Cu1606  1  0.27731092  0.75000000  0.13235294  1
  Cu  Cu1607  1  0.27731092  0.91666667  0.13235294  1
  Cu  Cu1608  1  0.42016807  0.08333333  0.13235294  1
  Cu  Cu1609  1  0.42016807  0.25000000  0.13235294  1
  Cu  Cu1610  1  0.42016807  0.41666667  0.13235294  1
  Cu  Cu1611  1  0.42016807  0.58333333  0.13235294  1
  Cu  Cu1612  1  0.42016807  0.75000000  0.13235294  1
  Cu  Cu1613  1  0.42016807  0.91666667  0.13235294  1
  Cu  Cu1614  1  0.56302521  0.08333333  0.13235294  1
  Cu  Cu1615  1  0.56302521  0.25000000  0.13235294  1
  Cu  Cu1616  1  0.56302521  0.41666667  0.13235294  1
  Cu  Cu1617  1  0.56302521  0.58333333  0.13235294  1
  Cu  Cu1618  1  0.56302521  0.75000000  0.13235294  1
  Cu  Cu1619  1  0.56302521  0.91666667  0.13235294  1
  Cu  Cu1620  1  0.70588235  0.08333333  0.13235294  1
  Cu  Cu1621  1  0.70588235  0.25000000  0.13235294  1
  Cu  Cu1622  1  0.70588235  0.41666667  0.13235294  1
  Cu  Cu1623  1  0.70588235  0.58333333  0.13235294  1
  Cu  Cu1624  1  0.70588235  0.75000000  0.13235294  1
  Cu  Cu1625  1  0.70588235  0.91666667  0.13235294  1
  Cu  Cu1626  1  0.84873950  0.08333333  0.13235294  1
  Cu  Cu1627  1  0.84873950  0.25000000  0.13235294  1
  Cu  Cu1628  1  0.84873950  0.41666667  0.13235294  1
  Cu  Cu1629  1  0.84873950  0.58333333  0.13235294  1
  Cu  Cu1630  1  0.84873950  0.75000000  0.13235294  1
  Cu  Cu1631  1  0.84873950  0.91666667  0.13235294  1
  Cu  Cu1632  1  0.99159664  0.08333333  0.13235294  1
  Cu  Cu1633  1  0.99159664  0.25000000  0.13235294  1
  Cu  Cu1634  1  0.99159664  0.41666667  0.13235294  1
  Cu  Cu1635  1  0.99159664  0.58333333  0.13235294  1
  Cu  Cu1636  1  0.99159664  0.75000000  0.13235294  1
  Cu  Cu1637  1  0.99159664  0.91666667  0.13235294  1
  Cu  Cu1638  1  0.13445378  0.08333333  0.63235294  1
  Cu  Cu1639  1  0.13445378  0.25000000  0.63235294  1
  Cu  Cu1640  1  0.13445378  0.41666667  0.63235294  1
  Cu  Cu1641  1  0.13445378  0.58333333  0.63235294  1
  Cu  Cu1642  1  0.13445378  0.75000000  0.63235294  1
  Cu  Cu1643  1  0.13445378  0.91666667  0.63235294  1
  Cu  Cu1644  1  0.27731092  0.08333333  0.63235294  1
  Cu  Cu1645  1  0.27731092  0.25000000  0.63235294  1
  Cu  Cu1646  1  0.27731092  0.41666667  0.63235294  1
  Cu  Cu1647  1  0.27731092  0.58333333  0.63235294  1
  Cu  Cu1648  1  0.27731092  0.75000000  0.63235294  1
  Cu  Cu1649  1  0.27731092  0.91666667  0.63235294  1
  Cu  Cu1650  1  0.42016807  0.08333333  0.63235294  1
  Cu  Cu1651  1  0.42016807  0.25000000  0.63235294  1
  Cu  Cu1652  1  0.42016807  0.41666667  0.63235294  1
  Cu  Cu1653  1  0.42016807  0.58333333  0.63235294  1
  Cu  Cu1654  1  0.42016807  0.75000000  0.63235294  1
  Cu  Cu1655  1  0.42016807  0.91666667  0.63235294  1
  Cu  Cu1656  1  0.56302521  0.08333333  0.63235294  1
  Cu  Cu1657  1  0.56302521  0.25000000  0.63235294  1
  Cu  Cu1658  1  0.56302521  0.41666667  0.63235294  1
  Cu  Cu1659  1  0.56302521  0.58333333  0.63235294  1
  Cu  Cu1660  1  0.56302521  0.75000000  0.63235294  1
  Cu  Cu1661  1  0.56302521  0.91666667  0.63235294  1
  Cu  Cu1662  1  0.70588235  0.08333333  0.63235294  1
  Cu  Cu1663  1  0.70588235  0.25000000  0.63235294  1
  Cu  Cu1664  1  0.70588235  0.41666667  0.63235294  1
  Cu  Cu1665  1  0.70588235  0.58333333  0.63235294  1
  Cu  Cu1666  1  0.70588235  0.75000000  0.63235294  1
  Cu  Cu1667  1  0.70588235  0.91666667  0.63235294  1
  Cu  Cu1668  1  0.84873950  0.08333333  0.63235294  1
  Cu  Cu1669  1  0.84873950  0.25000000  0.63235294  1
  Cu  Cu1670  1  0.84873950  0.41666667  0.63235294  1
  Cu  Cu1671  1  0.84873950  0.58333333  0.63235294  1
  Cu  Cu1672  1  0.84873950  0.75000000  0.63235294  1
  Cu  Cu1673  1  0.84873950  0.91666667  0.63235294  1
  Cu  Cu1674  1  0.99159664  0.08333333  0.63235294  1
  Cu  Cu1675  1  0.99159664  0.25000000  0.63235294  1
  Cu  Cu1676  1  0.99159664  0.41666667  0.63235294  1
  Cu  Cu1677  1  0.99159664  0.58333333  0.63235294  1
  Cu  Cu1678  1  0.99159664  0.75000000  0.63235294  1
  Cu  Cu1679  1  0.99159664  0.91666667  0.63235294  1
  Cu  Cu1680  1  0.11764706  0.00000000  0.14705882  1
  Cu  Cu1681  1  0.11764706  0.16666667  0.14705882  1
  Cu  Cu1682  1  0.11764706  0.33333333  0.14705882  1
  Cu  Cu1683  1  0.11764706  0.50000000  0.14705882  1
  Cu  Cu1684  1  0.11764706  0.66666667  0.14705882  1
  Cu  Cu1685  1  0.11764706  0.83333333  0.14705882  1
  Cu  Cu1686  1  0.26050420  0.00000000  0.14705882  1
  Cu  Cu1687  1  0.26050420  0.16666667  0.14705882  1
  Cu  Cu1688  1  0.26050420  0.33333333  0.14705882  1
  Cu  Cu1689  1  0.26050420  0.50000000  0.14705882  1
  Cu  Cu1690  1  0.26050420  0.66666667  0.14705882  1
  Cu  Cu1691  1  0.26050420  0.83333333  0.14705882  1
  Cu  Cu1692  1  0.40336134  0.00000000  0.14705882  1
  Cu  Cu1693  1  0.40336134  0.16666667  0.14705882  1
  Cu  Cu1694  1  0.40336134  0.33333333  0.14705882  1
  Cu  Cu1695  1  0.40336134  0.50000000  0.14705882  1
  Cu  Cu1696  1  0.40336134  0.66666667  0.14705882  1
  Cu  Cu1697  1  0.40336134  0.83333333  0.14705882  1
  Cu  Cu1698  1  0.54621849  0.00000000  0.14705882  1
  Cu  Cu1699  1  0.54621849  0.16666667  0.14705882  1
  Cu  Cu1700  1  0.54621849  0.33333333  0.14705882  1
  Cu  Cu1701  1  0.54621849  0.50000000  0.14705882  1
  Cu  Cu1702  1  0.54621849  0.66666667  0.14705882  1
  Cu  Cu1703  1  0.54621849  0.83333333  0.14705882  1
  Cu  Cu1704  1  0.68907563  0.00000000  0.14705882  1
  Cu  Cu1705  1  0.68907563  0.16666667  0.14705882  1
  Cu  Cu1706  1  0.68907563  0.33333333  0.14705882  1
  Cu  Cu1707  1  0.68907563  0.50000000  0.14705882  1
  Cu  Cu1708  1  0.68907563  0.66666667  0.14705882  1
  Cu  Cu1709  1  0.68907563  0.83333333  0.14705882  1
  Cu  Cu1710  1  0.83193277  0.00000000  0.14705882  1
  Cu  Cu1711  1  0.83193277  0.16666667  0.14705882  1
  Cu  Cu1712  1  0.83193277  0.33333333  0.14705882  1
  Cu  Cu1713  1  0.83193277  0.50000000  0.14705882  1
  Cu  Cu1714  1  0.83193277  0.66666667  0.14705882  1
  Cu  Cu1715  1  0.83193277  0.83333333  0.14705882  1
  Cu  Cu1716  1  0.97478992  0.00000000  0.14705882  1
  Cu  Cu1717  1  0.97478992  0.16666667  0.14705882  1
  Cu  Cu1718  1  0.97478992  0.33333333  0.14705882  1
  Cu  Cu1719  1  0.97478992  0.50000000  0.14705882  1
  Cu  Cu1720  1  0.97478992  0.66666667  0.14705882  1
  Cu  Cu1721  1  0.97478992  0.83333333  0.14705882  1
  Cu  Cu1722  1  0.11764706  0.00000000  0.64705882  1
  Cu  Cu1723  1  0.11764706  0.16666667  0.64705882  1
  Cu  Cu1724  1  0.11764706  0.33333333  0.64705882  1
  Cu  Cu1725  1  0.11764706  0.50000000  0.64705882  1
  Cu  Cu1726  1  0.11764706  0.66666667  0.64705882  1
  Cu  Cu1727  1  0.11764706  0.83333333  0.64705882  1
  Cu  Cu1728  1  0.26050420  0.00000000  0.64705882  1
  Cu  Cu1729  1  0.26050420  0.16666667  0.64705882  1
  Cu  Cu1730  1  0.26050420  0.33333333  0.64705882  1
  Cu  Cu1731  1  0.26050420  0.50000000  0.64705882  1
  Cu  Cu1732  1  0.26050420  0.66666667  0.64705882  1
  Cu  Cu1733  1  0.26050420  0.83333333  0.64705882  1
  Cu  Cu1734  1  0.40336134  0.00000000  0.64705882  1
  Cu  Cu1735  1  0.40336134  0.16666667  0.64705882  1
  Cu  Cu1736  1  0.40336134  0.33333333  0.64705882  1
  Cu  Cu1737  1  0.40336134  0.50000000  0.64705882  1
  Cu  Cu1738  1  0.40336134  0.66666667  0.64705882  1
  Cu  Cu1739  1  0.40336134  0.83333333  0.64705882  1
  Cu  Cu1740  1  0.54621849  0.00000000  0.64705882  1
  Cu  Cu1741  1  0.54621849  0.16666667  0.64705882  1
  Cu  Cu1742  1  0.54621849  0.33333333  0.64705882  1
  Cu  Cu1743  1  0.54621849  0.50000000  0.64705882  1
  Cu  Cu1744  1  0.54621849  0.66666667  0.64705882  1
  Cu  Cu1745  1  0.54621849  0.83333333  0.64705882  1
  Cu  Cu1746  1  0.68907563  0.00000000  0.64705882  1
  Cu  Cu1747  1  0.68907563  0.16666667  0.64705882  1
  Cu  Cu1748  1  0.68907563  0.33333333  0.64705882  1
  Cu  Cu1749  1  0.68907563  0.50000000  0.64705882  1
  Cu  Cu1750  1  0.68907563  0.66666667  0.64705882  1
  Cu  Cu1751  1  0.68907563  0.83333333  0.64705882  1
  Cu  Cu1752  1  0.83193277  0.00000000  0.64705882  1
  Cu  Cu1753  1  0.83193277  0.16666667  0.64705882  1
  Cu  Cu1754  1  0.83193277  0.33333333  0.64705882  1
  Cu  Cu1755  1  0.83193277  0.50000000  0.64705882  1
  Cu  Cu1756  1  0.83193277  0.66666667  0.64705882  1
  Cu  Cu1757  1  0.83193277  0.83333333  0.64705882  1
  Cu  Cu1758  1  0.97478992  0.00000000  0.64705882  1
  Cu  Cu1759  1  0.97478992  0.16666667  0.64705882  1
  Cu  Cu1760  1  0.97478992  0.33333333  0.64705882  1
  Cu  Cu1761  1  0.97478992  0.50000000  0.64705882  1
  Cu  Cu1762  1  0.97478992  0.66666667  0.64705882  1
  Cu  Cu1763  1  0.97478992  0.83333333  0.64705882  1
  Cu  Cu1764  1  0.13025210  0.00000000  0.07352941  1
  Cu  Cu1765  1  0.13025210  0.16666667  0.07352941  1
  Cu  Cu1766  1  0.13025210  0.33333333  0.07352941  1
  Cu  Cu1767  1  0.13025210  0.50000000  0.07352941  1
  Cu  Cu1768  1  0.13025210  0.66666667  0.07352941  1
  Cu  Cu1769  1  0.13025210  0.83333333  0.07352941  1
  Cu  Cu1770  1  0.27310924  0.00000000  0.07352941  1
  Cu  Cu1771  1  0.27310924  0.16666667  0.07352941  1
  Cu  Cu1772  1  0.27310924  0.33333333  0.07352941  1
  Cu  Cu1773  1  0.27310924  0.50000000  0.07352941  1
  Cu  Cu1774  1  0.27310924  0.66666667  0.07352941  1
  Cu  Cu1775  1  0.27310924  0.83333333  0.07352941  1
  Cu  Cu1776  1  0.41596639  0.00000000  0.07352941  1
  Cu  Cu1777  1  0.41596639  0.16666667  0.07352941  1
  Cu  Cu1778  1  0.41596639  0.33333333  0.07352941  1
  Cu  Cu1779  1  0.41596639  0.50000000  0.07352941  1
  Cu  Cu1780  1  0.41596639  0.66666667  0.07352941  1
  Cu  Cu1781  1  0.41596639  0.83333333  0.07352941  1
  Cu  Cu1782  1  0.55882353  0.00000000  0.07352941  1
  Cu  Cu1783  1  0.55882353  0.16666667  0.07352941  1
  Cu  Cu1784  1  0.55882353  0.33333333  0.07352941  1
  Cu  Cu1785  1  0.55882353  0.50000000  0.07352941  1
  Cu  Cu1786  1  0.55882353  0.66666667  0.07352941  1
  Cu  Cu1787  1  0.55882353  0.83333333  0.07352941  1
  Cu  Cu1788  1  0.70168067  0.00000000  0.07352941  1
  Cu  Cu1789  1  0.70168067  0.16666667  0.07352941  1
  Cu  Cu1790  1  0.70168067  0.33333333  0.07352941  1
  Cu  Cu1791  1  0.70168067  0.50000000  0.07352941  1
  Cu  Cu1792  1  0.70168067  0.66666667  0.07352941  1
  Cu  Cu1793  1  0.70168067  0.83333333  0.07352941  1
  Cu  Cu1794  1  0.84453782  0.00000000  0.07352941  1
  Cu  Cu1795  1  0.84453782  0.16666667  0.07352941  1
  Cu  Cu1796  1  0.84453782  0.33333333  0.07352941  1
  Cu  Cu1797  1  0.84453782  0.50000000  0.07352941  1
  Cu  Cu1798  1  0.84453782  0.66666667  0.07352941  1
  Cu  Cu1799  1  0.84453782  0.83333333  0.07352941  1
  Cu  Cu1800  1  0.98739496  0.00000000  0.07352941  1
  Cu  Cu1801  1  0.98739496  0.16666667  0.07352941  1
  Cu  Cu1802  1  0.98739496  0.33333333  0.07352941  1
  Cu  Cu1803  1  0.98739496  0.50000000  0.07352941  1
  Cu  Cu1804  1  0.98739496  0.66666667  0.07352941  1
  Cu  Cu1805  1  0.98739496  0.83333333  0.07352941  1
  Cu  Cu1806  1  0.13025210  0.00000000  0.57352941  1
  Cu  Cu1807  1  0.13025210  0.16666667  0.57352941  1
  Cu  Cu1808  1  0.13025210  0.33333333  0.57352941  1
  Cu  Cu1809  1  0.13025210  0.50000000  0.57352941  1
  Cu  Cu1810  1  0.13025210  0.66666667  0.57352941  1
  Cu  Cu1811  1  0.13025210  0.83333333  0.57352941  1
  Cu  Cu1812  1  0.27310924  0.00000000  0.57352941  1
  Cu  Cu1813  1  0.27310924  0.16666667  0.57352941  1
  Cu  Cu1814  1  0.27310924  0.33333333  0.57352941  1
  Cu  Cu1815  1  0.27310924  0.50000000  0.57352941  1
  Cu  Cu1816  1  0.27310924  0.66666667  0.57352941  1
  Cu  Cu1817  1  0.27310924  0.83333333  0.57352941  1
  Cu  Cu1818  1  0.41596639  0.00000000  0.57352941  1
  Cu  Cu1819  1  0.41596639  0.16666667  0.57352941  1
  Cu  Cu1820  1  0.41596639  0.33333333  0.57352941  1
  Cu  Cu1821  1  0.41596639  0.50000000  0.57352941  1
  Cu  Cu1822  1  0.41596639  0.66666667  0.57352941  1
  Cu  Cu1823  1  0.41596639  0.83333333  0.57352941  1
  Cu  Cu1824  1  0.55882353  0.00000000  0.57352941  1
  Cu  Cu1825  1  0.55882353  0.16666667  0.57352941  1
  Cu  Cu1826  1  0.55882353  0.33333333  0.57352941  1
  Cu  Cu1827  1  0.55882353  0.50000000  0.57352941  1
  Cu  Cu1828  1  0.55882353  0.66666667  0.57352941  1
  Cu  Cu1829  1  0.55882353  0.83333333  0.57352941  1
  Cu  Cu1830  1  0.70168067  0.00000000  0.57352941  1
  Cu  Cu1831  1  0.70168067  0.16666667  0.57352941  1
  Cu  Cu1832  1  0.70168067  0.33333333  0.57352941  1
  Cu  Cu1833  1  0.70168067  0.50000000  0.57352941  1
  Cu  Cu1834  1  0.70168067  0.66666667  0.57352941  1
  Cu  Cu1835  1  0.70168067  0.83333333  0.57352941  1
  Cu  Cu1836  1  0.84453782  0.00000000  0.57352941  1
  Cu  Cu1837  1  0.84453782  0.16666667  0.57352941  1
  Cu  Cu1838  1  0.84453782  0.33333333  0.57352941  1
  Cu  Cu1839  1  0.84453782  0.50000000  0.57352941  1
  Cu  Cu1840  1  0.84453782  0.66666667  0.57352941  1
  Cu  Cu1841  1  0.84453782  0.83333333  0.57352941  1
  Cu  Cu1842  1  0.98739496  0.00000000  0.57352941  1
  Cu  Cu1843  1  0.98739496  0.16666667  0.57352941  1
  Cu  Cu1844  1  0.98739496  0.33333333  0.57352941  1
  Cu  Cu1845  1  0.98739496  0.50000000  0.57352941  1
  Cu  Cu1846  1  0.98739496  0.66666667  0.57352941  1
  Cu  Cu1847  1  0.98739496  0.83333333  0.57352941  1
  Cu  Cu1848  1  0.05042017  0.08333333  0.45588235  1
  Cu  Cu1849  1  0.05042017  0.25000000  0.45588235  1
  Cu  Cu1850  1  0.05042017  0.41666667  0.45588235  1
  Cu  Cu1851  1  0.05042017  0.58333333  0.45588235  1
  Cu  Cu1852  1  0.05042017  0.75000000  0.45588235  1
  Cu  Cu1853  1  0.05042017  0.91666667  0.45588235  1
  Cu  Cu1854  1  0.19327731  0.08333333  0.45588235  1
  Cu  Cu1855  1  0.19327731  0.25000000  0.45588235  1
  Cu  Cu1856  1  0.19327731  0.41666667  0.45588235  1
  Cu  Cu1857  1  0.19327731  0.58333333  0.45588235  1
  Cu  Cu1858  1  0.19327731  0.75000000  0.45588235  1
  Cu  Cu1859  1  0.19327731  0.91666667  0.45588235  1
  Cu  Cu1860  1  0.33613445  0.08333333  0.45588235  1
  Cu  Cu1861  1  0.33613445  0.25000000  0.45588235  1
  Cu  Cu1862  1  0.33613445  0.41666667  0.45588235  1
  Cu  Cu1863  1  0.33613445  0.58333333  0.45588235  1
  Cu  Cu1864  1  0.33613445  0.75000000  0.45588235  1
  Cu  Cu1865  1  0.33613445  0.91666667  0.45588235  1
  Cu  Cu1866  1  0.47899160  0.08333333  0.45588235  1
  Cu  Cu1867  1  0.47899160  0.25000000  0.45588235  1
  Cu  Cu1868  1  0.47899160  0.41666667  0.45588235  1
  Cu  Cu1869  1  0.47899160  0.58333333  0.45588235  1
  Cu  Cu1870  1  0.47899160  0.75000000  0.45588235  1
  Cu  Cu1871  1  0.47899160  0.91666667  0.45588235  1
  Cu  Cu1872  1  0.62184874  0.08333333  0.45588235  1
  Cu  Cu1873  1  0.62184874  0.25000000  0.45588235  1
  Cu  Cu1874  1  0.62184874  0.41666667  0.45588235  1
  Cu  Cu1875  1  0.62184874  0.58333333  0.45588235  1
  Cu  Cu1876  1  0.62184874  0.75000000  0.45588235  1
  Cu  Cu1877  1  0.62184874  0.91666667  0.45588235  1
  Cu  Cu1878  1  0.76470588  0.08333333  0.45588235  1
  Cu  Cu1879  1  0.76470588  0.25000000  0.45588235  1
  Cu  Cu1880  1  0.76470588  0.41666667  0.45588235  1
  Cu  Cu1881  1  0.76470588  0.58333333  0.45588235  1
  Cu  Cu1882  1  0.76470588  0.75000000  0.45588235  1
  Cu  Cu1883  1  0.76470588  0.91666667  0.45588235  1
  Cu  Cu1884  1  0.90756303  0.08333333  0.45588235  1
  Cu  Cu1885  1  0.90756303  0.25000000  0.45588235  1
  Cu  Cu1886  1  0.90756303  0.41666667  0.45588235  1
  Cu  Cu1887  1  0.90756303  0.58333333  0.45588235  1
  Cu  Cu1888  1  0.90756303  0.75000000  0.45588235  1
  Cu  Cu1889  1  0.90756303  0.91666667  0.45588235  1
  Cu  Cu1890  1  0.05042017  0.08333333  0.95588235  1
  Cu  Cu1891  1  0.05042017  0.25000000  0.95588235  1
  Cu  Cu1892  1  0.05042017  0.41666667  0.95588235  1
  Cu  Cu1893  1  0.05042017  0.58333333  0.95588235  1
  Cu  Cu1894  1  0.05042017  0.75000000  0.95588235  1
  Cu  Cu1895  1  0.05042017  0.91666667  0.95588235  1
  Cu  Cu1896  1  0.19327731  0.08333333  0.95588235  1
  Cu  Cu1897  1  0.19327731  0.25000000  0.95588235  1
  Cu  Cu1898  1  0.19327731  0.41666667  0.95588235  1
  Cu  Cu1899  1  0.19327731  0.58333333  0.95588235  1
  Cu  Cu1900  1  0.19327731  0.75000000  0.95588235  1
  Cu  Cu1901  1  0.19327731  0.91666667  0.95588235  1
  Cu  Cu1902  1  0.33613445  0.08333333  0.95588235  1
  Cu  Cu1903  1  0.33613445  0.25000000  0.95588235  1
  Cu  Cu1904  1  0.33613445  0.41666667  0.95588235  1
  Cu  Cu1905  1  0.33613445  0.58333333  0.95588235  1
  Cu  Cu1906  1  0.33613445  0.75000000  0.95588235  1
  Cu  Cu1907  1  0.33613445  0.91666667  0.95588235  1
  Cu  Cu1908  1  0.47899160  0.08333333  0.95588235  1
  Cu  Cu1909  1  0.47899160  0.25000000  0.95588235  1
  Cu  Cu1910  1  0.47899160  0.41666667  0.95588235  1
  Cu  Cu1911  1  0.47899160  0.58333333  0.95588235  1
  Cu  Cu1912  1  0.47899160  0.75000000  0.95588235  1
  Cu  Cu1913  1  0.47899160  0.91666667  0.95588235  1
  Cu  Cu1914  1  0.62184874  0.08333333  0.95588235  1
  Cu  Cu1915  1  0.62184874  0.25000000  0.95588235  1
  Cu  Cu1916  1  0.62184874  0.41666667  0.95588235  1
  Cu  Cu1917  1  0.62184874  0.58333333  0.95588235  1
  Cu  Cu1918  1  0.62184874  0.75000000  0.95588235  1
  Cu  Cu1919  1  0.62184874  0.91666667  0.95588235  1
  Cu  Cu1920  1  0.76470588  0.08333333  0.95588235  1
  Cu  Cu1921  1  0.76470588  0.25000000  0.95588235  1
  Cu  Cu1922  1  0.76470588  0.41666667  0.95588235  1
  Cu  Cu1923  1  0.76470588  0.58333333  0.95588235  1
  Cu  Cu1924  1  0.76470588  0.75000000  0.95588235  1
  Cu  Cu1925  1  0.76470588  0.91666667  0.95588235  1
  Cu  Cu1926  1  0.90756303  0.08333333  0.95588235  1
  Cu  Cu1927  1  0.90756303  0.25000000  0.95588235  1
  Cu  Cu1928  1  0.90756303  0.41666667  0.95588235  1
  Cu  Cu1929  1  0.90756303  0.58333333  0.95588235  1
  Cu  Cu1930  1  0.90756303  0.75000000  0.95588235  1
  Cu  Cu1931  1  0.90756303  0.91666667  0.95588235  1
  Cu  Cu1932  1  0.03361345  0.00000000  0.47058824  1
  Cu  Cu1933  1  0.03361345  0.16666667  0.47058824  1
  Cu  Cu1934  1  0.03361345  0.33333333  0.47058824  1
  Cu  Cu1935  1  0.03361345  0.50000000  0.47058824  1
  Cu  Cu1936  1  0.03361345  0.66666667  0.47058824  1
  Cu  Cu1937  1  0.03361345  0.83333333  0.47058824  1
  Cu  Cu1938  1  0.17647059  0.00000000  0.47058824  1
  Cu  Cu1939  1  0.17647059  0.16666667  0.47058824  1
  Cu  Cu1940  1  0.17647059  0.33333333  0.47058824  1
  Cu  Cu1941  1  0.17647059  0.50000000  0.47058824  1
  Cu  Cu1942  1  0.17647059  0.66666667  0.47058824  1
  Cu  Cu1943  1  0.17647059  0.83333333  0.47058824  1
  Cu  Cu1944  1  0.31932773  0.00000000  0.47058824  1
  Cu  Cu1945  1  0.31932773  0.16666667  0.47058824  1
  Cu  Cu1946  1  0.31932773  0.33333333  0.47058824  1
  Cu  Cu1947  1  0.31932773  0.50000000  0.47058824  1
  Cu  Cu1948  1  0.31932773  0.66666667  0.47058824  1
  Cu  Cu1949  1  0.31932773  0.83333333  0.47058824  1
  Cu  Cu1950  1  0.46218487  0.00000000  0.47058824  1
  Cu  Cu1951  1  0.46218487  0.16666667  0.47058824  1
  Cu  Cu1952  1  0.46218487  0.33333333  0.47058824  1
  Cu  Cu1953  1  0.46218487  0.50000000  0.47058824  1
  Cu  Cu1954  1  0.46218487  0.66666667  0.47058824  1
  Cu  Cu1955  1  0.46218487  0.83333333  0.47058824  1
  Cu  Cu1956  1  0.60504202  0.00000000  0.47058824  1
  Cu  Cu1957  1  0.60504202  0.16666667  0.47058824  1
  Cu  Cu1958  1  0.60504202  0.33333333  0.47058824  1
  Cu  Cu1959  1  0.60504202  0.50000000  0.47058824  1
  Cu  Cu1960  1  0.60504202  0.66666667  0.47058824  1
  Cu  Cu1961  1  0.60504202  0.83333333  0.47058824  1
  Cu  Cu1962  1  0.74789916  0.00000000  0.47058824  1
  Cu  Cu1963  1  0.74789916  0.16666667  0.47058824  1
  Cu  Cu1964  1  0.74789916  0.33333333  0.47058824  1
  Cu  Cu1965  1  0.74789916  0.50000000  0.47058824  1
  Cu  Cu1966  1  0.74789916  0.66666667  0.47058824  1
  Cu  Cu1967  1  0.74789916  0.83333333  0.47058824  1
  Cu  Cu1968  1  0.89075630  0.00000000  0.47058824  1
  Cu  Cu1969  1  0.89075630  0.16666667  0.47058824  1
  Cu  Cu1970  1  0.89075630  0.33333333  0.47058824  1
  Cu  Cu1971  1  0.89075630  0.50000000  0.47058824  1
  Cu  Cu1972  1  0.89075630  0.66666667  0.47058824  1
  Cu  Cu1973  1  0.89075630  0.83333333  0.47058824  1
  Cu  Cu1974  1  0.03361345  0.00000000  0.97058824  1
  Cu  Cu1975  1  0.03361345  0.16666667  0.97058824  1
  Cu  Cu1976  1  0.03361345  0.33333333  0.97058824  1
  Cu  Cu1977  1  0.03361345  0.50000000  0.97058824  1
  Cu  Cu1978  1  0.03361345  0.66666667  0.97058824  1
  Cu  Cu1979  1  0.03361345  0.83333333  0.97058824  1
  Cu  Cu1980  1  0.17647059  0.00000000  0.97058824  1
  Cu  Cu1981  1  0.17647059  0.16666667  0.97058824  1
  Cu  Cu1982  1  0.17647059  0.33333333  0.97058824  1
  Cu  Cu1983  1  0.17647059  0.50000000  0.97058824  1
  Cu  Cu1984  1  0.17647059  0.66666667  0.97058824  1
  Cu  Cu1985  1  0.17647059  0.83333333  0.97058824  1
  Cu  Cu1986  1  0.31932773  0.00000000  0.97058824  1
  Cu  Cu1987  1  0.31932773  0.16666667  0.97058824  1
  Cu  Cu1988  1  0.31932773  0.33333333  0.97058824  1
  Cu  Cu1989  1  0.31932773  0.50000000  0.97058824  1
  Cu  Cu1990  1  0.31932773  0.66666667  0.97058824  1
  Cu  Cu1991  1  0.31932773  0.83333333  0.97058824  1
  Cu  Cu1992  1  0.46218487  0.00000000  0.97058824  1
  Cu  Cu1993  1  0.46218487  0.16666667  0.97058824  1
  Cu  Cu1994  1  0.46218487  0.33333333  0.97058824  1
  Cu  Cu1995  1  0.46218487  0.50000000  0.97058824  1
  Cu  Cu1996  1  0.46218487  0.66666667  0.97058824  1
  Cu  Cu1997  1  0.46218487  0.83333333  0.97058824  1
  Cu  Cu1998  1  0.60504202  0.00000000  0.97058824  1
  Cu  Cu1999  1  0.60504202  0.16666667  0.97058824  1
  Cu  Cu2000  1  0.60504202  0.33333333  0.97058824  1
  Cu  Cu2001  1  0.60504202  0.50000000  0.97058824  1
  Cu  Cu2002  1  0.60504202  0.66666667  0.97058824  1
  Cu  Cu2003  1  0.60504202  0.83333333  0.97058824  1
  Cu  Cu2004  1  0.74789916  0.00000000  0.97058824  1
  Cu  Cu2005  1  0.74789916  0.16666667  0.97058824  1
  Cu  Cu2006  1  0.74789916  0.33333333  0.97058824  1
  Cu  Cu2007  1  0.74789916  0.50000000  0.97058824  1
  Cu  Cu2008  1  0.74789916  0.66666667  0.97058824  1
  Cu  Cu2009  1  0.74789916  0.83333333  0.97058824  1
  Cu  Cu2010  1  0.89075630  0.00000000  0.97058824  1
  Cu  Cu2011  1  0.89075630  0.16666667  0.97058824  1
  Cu  Cu2012  1  0.89075630  0.33333333  0.97058824  1
  Cu  Cu2013  1  0.89075630  0.50000000  0.97058824  1
  Cu  Cu2014  1  0.89075630  0.66666667  0.97058824  1
  Cu  Cu2015  1  0.89075630  0.83333333  0.97058824  1
  Cu  Cu2016  1  0.06302521  0.08333333  0.38235294  1
  Cu  Cu2017  1  0.06302521  0.25000000  0.38235294  1
  Cu  Cu2018  1  0.06302521  0.41666667  0.38235294  1
  Cu  Cu2019  1  0.06302521  0.58333333  0.38235294  1
  Cu  Cu2020  1  0.06302521  0.75000000  0.38235294  1
  Cu  Cu2021  1  0.06302521  0.91666667  0.38235294  1
  Cu  Cu2022  1  0.20588235  0.08333333  0.38235294  1
  Cu  Cu2023  1  0.20588235  0.25000000  0.38235294  1
  Cu  Cu2024  1  0.20588235  0.41666667  0.38235294  1
  Cu  Cu2025  1  0.20588235  0.58333333  0.38235294  1
  Cu  Cu2026  1  0.20588235  0.75000000  0.38235294  1
  Cu  Cu2027  1  0.20588235  0.91666667  0.38235294  1
  Cu  Cu2028  1  0.34873950  0.08333333  0.38235294  1
  Cu  Cu2029  1  0.34873950  0.25000000  0.38235294  1
  Cu  Cu2030  1  0.34873950  0.41666667  0.38235294  1
  Cu  Cu2031  1  0.34873950  0.58333333  0.38235294  1
  Cu  Cu2032  1  0.34873950  0.75000000  0.38235294  1
  Cu  Cu2033  1  0.34873950  0.91666667  0.38235294  1
  Cu  Cu2034  1  0.49159664  0.08333333  0.38235294  1
  Cu  Cu2035  1  0.49159664  0.25000000  0.38235294  1
  Cu  Cu2036  1  0.49159664  0.41666667  0.38235294  1
  Cu  Cu2037  1  0.49159664  0.58333333  0.38235294  1
  Cu  Cu2038  1  0.49159664  0.75000000  0.38235294  1
  Cu  Cu2039  1  0.49159664  0.91666667  0.38235294  1
  Cu  Cu2040  1  0.63445378  0.08333333  0.38235294  1
  Cu  Cu2041  1  0.63445378  0.25000000  0.38235294  1
  Cu  Cu2042  1  0.63445378  0.41666667  0.38235294  1
  Cu  Cu2043  1  0.63445378  0.58333333  0.38235294  1
  Cu  Cu2044  1  0.63445378  0.75000000  0.38235294  1
  Cu  Cu2045  1  0.63445378  0.91666667  0.38235294  1
  Cu  Cu2046  1  0.77731092  0.08333333  0.38235294  1
  Cu  Cu2047  1  0.77731092  0.25000000  0.38235294  1
  Cu  Cu2048  1  0.77731092  0.41666667  0.38235294  1
  Cu  Cu2049  1  0.77731092  0.58333333  0.38235294  1
  Cu  Cu2050  1  0.77731092  0.75000000  0.38235294  1
  Cu  Cu2051  1  0.77731092  0.91666667  0.38235294  1
  Cu  Cu2052  1  0.92016807  0.08333333  0.38235294  1
  Cu  Cu2053  1  0.92016807  0.25000000  0.38235294  1
  Cu  Cu2054  1  0.92016807  0.41666667  0.38235294  1
  Cu  Cu2055  1  0.92016807  0.58333333  0.38235294  1
  Cu  Cu2056  1  0.92016807  0.75000000  0.38235294  1
  Cu  Cu2057  1  0.92016807  0.91666667  0.38235294  1
  Cu  Cu2058  1  0.06302521  0.08333333  0.88235294  1
  Cu  Cu2059  1  0.06302521  0.25000000  0.88235294  1
  Cu  Cu2060  1  0.06302521  0.41666667  0.88235294  1
  Cu  Cu2061  1  0.06302521  0.58333333  0.88235294  1
  Cu  Cu2062  1  0.06302521  0.75000000  0.88235294  1
  Cu  Cu2063  1  0.06302521  0.91666667  0.88235294  1
  Cu  Cu2064  1  0.20588235  0.08333333  0.88235294  1
  Cu  Cu2065  1  0.20588235  0.25000000  0.88235294  1
  Cu  Cu2066  1  0.20588235  0.41666667  0.88235294  1
  Cu  Cu2067  1  0.20588235  0.58333333  0.88235294  1
  Cu  Cu2068  1  0.20588235  0.75000000  0.88235294  1
  Cu  Cu2069  1  0.20588235  0.91666667  0.88235294  1
  Cu  Cu2070  1  0.34873950  0.08333333  0.88235294  1
  Cu  Cu2071  1  0.34873950  0.25000000  0.88235294  1
  Cu  Cu2072  1  0.34873950  0.41666667  0.88235294  1
  Cu  Cu2073  1  0.34873950  0.58333333  0.88235294  1
  Cu  Cu2074  1  0.34873950  0.75000000  0.88235294  1
  Cu  Cu2075  1  0.34873950  0.91666667  0.88235294  1
  Cu  Cu2076  1  0.49159664  0.08333333  0.88235294  1
  Cu  Cu2077  1  0.49159664  0.25000000  0.88235294  1
  Cu  Cu2078  1  0.49159664  0.41666667  0.88235294  1
  Cu  Cu2079  1  0.49159664  0.58333333  0.88235294  1
  Cu  Cu2080  1  0.49159664  0.75000000  0.88235294  1
  Cu  Cu2081  1  0.49159664  0.91666667  0.88235294  1
  Cu  Cu2082  1  0.63445378  0.08333333  0.88235294  1
  Cu  Cu2083  1  0.63445378  0.25000000  0.88235294  1
  Cu  Cu2084  1  0.63445378  0.41666667  0.88235294  1
  Cu  Cu2085  1  0.63445378  0.58333333  0.88235294  1
  Cu  Cu2086  1  0.63445378  0.75000000  0.88235294  1
  Cu  Cu2087  1  0.63445378  0.91666667  0.88235294  1
  Cu  Cu2088  1  0.77731092  0.08333333  0.88235294  1
  Cu  Cu2089  1  0.77731092  0.25000000  0.88235294  1
  Cu  Cu2090  1  0.77731092  0.41666667  0.88235294  1
  Cu  Cu2091  1  0.77731092  0.58333333  0.88235294  1
  Cu  Cu2092  1  0.77731092  0.75000000  0.88235294  1
  Cu  Cu2093  1  0.77731092  0.91666667  0.88235294  1
  Cu  Cu2094  1  0.92016807  0.08333333  0.88235294  1
  Cu  Cu2095  1  0.92016807  0.25000000  0.88235294  1
  Cu  Cu2096  1  0.92016807  0.41666667  0.88235294  1
  Cu  Cu2097  1  0.92016807  0.58333333  0.88235294  1
  Cu  Cu2098  1  0.92016807  0.75000000  0.88235294  1
  Cu  Cu2099  1  0.92016807  0.91666667  0.88235294  1
  Cu  Cu2100  1  0.04621849  0.00000000  0.39705882  1
  Cu  Cu2101  1  0.04621849  0.16666667  0.39705882  1
  Cu  Cu2102  1  0.04621849  0.33333333  0.39705882  1
  Cu  Cu2103  1  0.04621849  0.50000000  0.39705882  1
  Cu  Cu2104  1  0.04621849  0.66666667  0.39705882  1
  Cu  Cu2105  1  0.04621849  0.83333333  0.39705882  1
  Cu  Cu2106  1  0.18907563  0.00000000  0.39705882  1
  Cu  Cu2107  1  0.18907563  0.16666667  0.39705882  1
  Cu  Cu2108  1  0.18907563  0.33333333  0.39705882  1
  Cu  Cu2109  1  0.18907563  0.50000000  0.39705882  1
  Cu  Cu2110  1  0.18907563  0.66666667  0.39705882  1
  Cu  Cu2111  1  0.18907563  0.83333333  0.39705882  1
  Cu  Cu2112  1  0.33193277  0.00000000  0.39705882  1
  Cu  Cu2113  1  0.33193277  0.16666667  0.39705882  1
  Cu  Cu2114  1  0.33193277  0.33333333  0.39705882  1
  Cu  Cu2115  1  0.33193277  0.50000000  0.39705882  1
  Cu  Cu2116  1  0.33193277  0.66666667  0.39705882  1
  Cu  Cu2117  1  0.33193277  0.83333333  0.39705882  1
  Cu  Cu2118  1  0.47478992  0.00000000  0.39705882  1
  Cu  Cu2119  1  0.47478992  0.16666667  0.39705882  1
  Cu  Cu2120  1  0.47478992  0.33333333  0.39705882  1
  Cu  Cu2121  1  0.47478992  0.50000000  0.39705882  1
  Cu  Cu2122  1  0.47478992  0.66666667  0.39705882  1
  Cu  Cu2123  1  0.47478992  0.83333333  0.39705882  1
  Cu  Cu2124  1  0.61764706  0.00000000  0.39705882  1
  Cu  Cu2125  1  0.61764706  0.16666667  0.39705882  1
  Cu  Cu2126  1  0.61764706  0.33333333  0.39705882  1
  Cu  Cu2127  1  0.61764706  0.50000000  0.39705882  1
  Cu  Cu2128  1  0.61764706  0.66666667  0.39705882  1
  Cu  Cu2129  1  0.61764706  0.83333333  0.39705882  1
  Cu  Cu2130  1  0.76050420  0.00000000  0.39705882  1
  Cu  Cu2131  1  0.76050420  0.16666667  0.39705882  1
  Cu  Cu2132  1  0.76050420  0.33333333  0.39705882  1
  Cu  Cu2133  1  0.76050420  0.50000000  0.39705882  1
  Cu  Cu2134  1  0.76050420  0.66666667  0.39705882  1
  Cu  Cu2135  1  0.76050420  0.83333333  0.39705882  1
  Cu  Cu2136  1  0.90336134  0.00000000  0.39705882  1
  Cu  Cu2137  1  0.90336134  0.16666667  0.39705882  1
  Cu  Cu2138  1  0.90336134  0.33333333  0.39705882  1
  Cu  Cu2139  1  0.90336134  0.50000000  0.39705882  1
  Cu  Cu2140  1  0.90336134  0.66666667  0.39705882  1
  Cu  Cu2141  1  0.90336134  0.83333333  0.39705882  1
  Cu  Cu2142  1  0.04621849  0.00000000  0.89705882  1
  Cu  Cu2143  1  0.04621849  0.16666667  0.89705882  1
  Cu  Cu2144  1  0.04621849  0.33333333  0.89705882  1
  Cu  Cu2145  1  0.04621849  0.50000000  0.89705882  1
  Cu  Cu2146  1  0.04621849  0.66666667  0.89705882  1
  Cu  Cu2147  1  0.04621849  0.83333333  0.89705882  1
  Cu  Cu2148  1  0.18907563  0.00000000  0.89705882  1
  Cu  Cu2149  1  0.18907563  0.16666667  0.89705882  1
  Cu  Cu2150  1  0.18907563  0.33333333  0.89705882  1
  Cu  Cu2151  1  0.18907563  0.50000000  0.89705882  1
  Cu  Cu2152  1  0.18907563  0.66666667  0.89705882  1
  Cu  Cu2153  1  0.18907563  0.83333333  0.89705882  1
  Cu  Cu2154  1  0.33193277  0.00000000  0.89705882  1
  Cu  Cu2155  1  0.33193277  0.16666667  0.89705882  1
  Cu  Cu2156  1  0.33193277  0.33333333  0.89705882  1
  Cu  Cu2157  1  0.33193277  0.50000000  0.89705882  1
  Cu  Cu2158  1  0.33193277  0.66666667  0.89705882  1
  Cu  Cu2159  1  0.33193277  0.83333333  0.89705882  1
  Cu  Cu2160  1  0.47478992  0.00000000  0.89705882  1
  Cu  Cu2161  1  0.47478992  0.16666667  0.89705882  1
  Cu  Cu2162  1  0.47478992  0.33333333  0.89705882  1
  Cu  Cu2163  1  0.47478992  0.50000000  0.89705882  1
  Cu  Cu2164  1  0.47478992  0.66666667  0.89705882  1
  Cu  Cu2165  1  0.47478992  0.83333333  0.89705882  1
  Cu  Cu2166  1  0.61764706  0.00000000  0.89705882  1
  Cu  Cu2167  1  0.61764706  0.16666667  0.89705882  1
  Cu  Cu2168  1  0.61764706  0.33333333  0.89705882  1
  Cu  Cu2169  1  0.61764706  0.50000000  0.89705882  1
  Cu  Cu2170  1  0.61764706  0.66666667  0.89705882  1
  Cu  Cu2171  1  0.61764706  0.83333333  0.89705882  1
  Cu  Cu2172  1  0.76050420  0.00000000  0.89705882  1
  Cu  Cu2173  1  0.76050420  0.16666667  0.89705882  1
  Cu  Cu2174  1  0.76050420  0.33333333  0.89705882  1
  Cu  Cu2175  1  0.76050420  0.50000000  0.89705882  1
  Cu  Cu2176  1  0.76050420  0.66666667  0.89705882  1
  Cu  Cu2177  1  0.76050420  0.83333333  0.89705882  1
  Cu  Cu2178  1  0.90336134  0.00000000  0.89705882  1
  Cu  Cu2179  1  0.90336134  0.16666667  0.89705882  1
  Cu  Cu2180  1  0.90336134  0.33333333  0.89705882  1
  Cu  Cu2181  1  0.90336134  0.50000000  0.89705882  1
  Cu  Cu2182  1  0.90336134  0.66666667  0.89705882  1
  Cu  Cu2183  1  0.90336134  0.83333333  0.89705882  1
  Cu  Cu2184  1  0.07563025  0.08333333  0.30882353  1
  Cu  Cu2185  1  0.07563025  0.25000000  0.30882353  1
  Cu  Cu2186  1  0.07563025  0.41666667  0.30882353  1
  Cu  Cu2187  1  0.07563025  0.58333333  0.30882353  1
  Cu  Cu2188  1  0.07563025  0.75000000  0.30882353  1
  Cu  Cu2189  1  0.07563025  0.91666667  0.30882353  1
  Cu  Cu2190  1  0.21848739  0.08333333  0.30882353  1
  Cu  Cu2191  1  0.21848739  0.25000000  0.30882353  1
  Cu  Cu2192  1  0.21848739  0.41666667  0.30882353  1
  Cu  Cu2193  1  0.21848739  0.58333333  0.30882353  1
  Cu  Cu2194  1  0.21848739  0.75000000  0.30882353  1
  Cu  Cu2195  1  0.21848739  0.91666667  0.30882353  1
  Cu  Cu2196  1  0.36134454  0.08333333  0.30882353  1
  Cu  Cu2197  1  0.36134454  0.25000000  0.30882353  1
  Cu  Cu2198  1  0.36134454  0.41666667  0.30882353  1
  Cu  Cu2199  1  0.36134454  0.58333333  0.30882353  1
  Cu  Cu2200  1  0.36134454  0.75000000  0.30882353  1
  Cu  Cu2201  1  0.36134454  0.91666667  0.30882353  1
  Cu  Cu2202  1  0.50420168  0.08333333  0.30882353  1
  Cu  Cu2203  1  0.50420168  0.25000000  0.30882353  1
  Cu  Cu2204  1  0.50420168  0.41666667  0.30882353  1
  Cu  Cu2205  1  0.50420168  0.58333333  0.30882353  1
  Cu  Cu2206  1  0.50420168  0.75000000  0.30882353  1
  Cu  Cu2207  1  0.50420168  0.91666667  0.30882353  1
  Cu  Cu2208  1  0.64705882  0.08333333  0.30882353  1
  Cu  Cu2209  1  0.64705882  0.25000000  0.30882353  1
  Cu  Cu2210  1  0.64705882  0.41666667  0.30882353  1
  Cu  Cu2211  1  0.64705882  0.58333333  0.30882353  1
  Cu  Cu2212  1  0.64705882  0.75000000  0.30882353  1
  Cu  Cu2213  1  0.64705882  0.91666667  0.30882353  1
  Cu  Cu2214  1  0.78991597  0.08333333  0.30882353  1
  Cu  Cu2215  1  0.78991597  0.25000000  0.30882353  1
  Cu  Cu2216  1  0.78991597  0.41666667  0.30882353  1
  Cu  Cu2217  1  0.78991597  0.58333333  0.30882353  1
  Cu  Cu2218  1  0.78991597  0.75000000  0.30882353  1
  Cu  Cu2219  1  0.78991597  0.91666667  0.30882353  1
  Cu  Cu2220  1  0.93277311  0.08333333  0.30882353  1
  Cu  Cu2221  1  0.93277311  0.25000000  0.30882353  1
  Cu  Cu2222  1  0.93277311  0.41666667  0.30882353  1
  Cu  Cu2223  1  0.93277311  0.58333333  0.30882353  1
  Cu  Cu2224  1  0.93277311  0.75000000  0.30882353  1
  Cu  Cu2225  1  0.93277311  0.91666667  0.30882353  1
  Cu  Cu2226  1  0.07563025  0.08333333  0.80882353  1
  Cu  Cu2227  1  0.07563025  0.25000000  0.80882353  1
  Cu  Cu2228  1  0.07563025  0.41666667  0.80882353  1
  Cu  Cu2229  1  0.07563025  0.58333333  0.80882353  1
  Cu  Cu2230  1  0.07563025  0.75000000  0.80882353  1
  Cu  Cu2231  1  0.07563025  0.91666667  0.80882353  1
  Cu  Cu2232  1  0.21848739  0.08333333  0.80882353  1
  Cu  Cu2233  1  0.21848739  0.25000000  0.80882353  1
  Cu  Cu2234  1  0.21848739  0.41666667  0.80882353  1
  Cu  Cu2235  1  0.21848739  0.58333333  0.80882353  1
  Cu  Cu2236  1  0.21848739  0.75000000  0.80882353  1
  Cu  Cu2237  1  0.21848739  0.91666667  0.80882353  1
  Cu  Cu2238  1  0.36134454  0.08333333  0.80882353  1
  Cu  Cu2239  1  0.36134454  0.25000000  0.80882353  1
  Cu  Cu2240  1  0.36134454  0.41666667  0.80882353  1
  Cu  Cu2241  1  0.36134454  0.58333333  0.80882353  1
  Cu  Cu2242  1  0.36134454  0.75000000  0.80882353  1
  Cu  Cu2243  1  0.36134454  0.91666667  0.80882353  1
  Cu  Cu2244  1  0.50420168  0.08333333  0.80882353  1
  Cu  Cu2245  1  0.50420168  0.25000000  0.80882353  1
  Cu  Cu2246  1  0.50420168  0.41666667  0.80882353  1
  Cu  Cu2247  1  0.50420168  0.58333333  0.80882353  1
  Cu  Cu2248  1  0.50420168  0.75000000  0.80882353  1
  Cu  Cu2249  1  0.50420168  0.91666667  0.80882353  1
  Cu  Cu2250  1  0.64705882  0.08333333  0.80882353  1
  Cu  Cu2251  1  0.64705882  0.25000000  0.80882353  1
  Cu  Cu2252  1  0.64705882  0.41666667  0.80882353  1
  Cu  Cu2253  1  0.64705882  0.58333333  0.80882353  1
  Cu  Cu2254  1  0.64705882  0.75000000  0.80882353  1
  Cu  Cu2255  1  0.64705882  0.91666667  0.80882353  1
  Cu  Cu2256  1  0.78991597  0.08333333  0.80882353  1
  Cu  Cu2257  1  0.78991597  0.25000000  0.80882353  1
  Cu  Cu2258  1  0.78991597  0.41666667  0.80882353  1
  Cu  Cu2259  1  0.78991597  0.58333333  0.80882353  1
  Cu  Cu2260  1  0.78991597  0.75000000  0.80882353  1
  Cu  Cu2261  1  0.78991597  0.91666667  0.80882353  1
  Cu  Cu2262  1  0.93277311  0.08333333  0.80882353  1
  Cu  Cu2263  1  0.93277311  0.25000000  0.80882353  1
  Cu  Cu2264  1  0.93277311  0.41666667  0.80882353  1
  Cu  Cu2265  1  0.93277311  0.58333333  0.80882353  1
  Cu  Cu2266  1  0.93277311  0.75000000  0.80882353  1
  Cu  Cu2267  1  0.93277311  0.91666667  0.80882353  1
  Cu  Cu2268  1  0.05882353  0.00000000  0.32352941  1
  Cu  Cu2269  1  0.05882353  0.16666667  0.32352941  1
  Cu  Cu2270  1  0.05882353  0.33333333  0.32352941  1
  Cu  Cu2271  1  0.05882353  0.50000000  0.32352941  1
  Cu  Cu2272  1  0.05882353  0.66666667  0.32352941  1
  Cu  Cu2273  1  0.05882353  0.83333333  0.32352941  1
  Cu  Cu2274  1  0.20168067  0.00000000  0.32352941  1
  Cu  Cu2275  1  0.20168067  0.16666667  0.32352941  1
  Cu  Cu2276  1  0.20168067  0.33333333  0.32352941  1
  Cu  Cu2277  1  0.20168067  0.50000000  0.32352941  1
  Cu  Cu2278  1  0.20168067  0.66666667  0.32352941  1
  Cu  Cu2279  1  0.20168067  0.83333333  0.32352941  1
  Cu  Cu2280  1  0.34453782  0.00000000  0.32352941  1
  Cu  Cu2281  1  0.34453782  0.16666667  0.32352941  1
  Cu  Cu2282  1  0.34453782  0.33333333  0.32352941  1
  Cu  Cu2283  1  0.34453782  0.50000000  0.32352941  1
  Cu  Cu2284  1  0.34453782  0.66666667  0.32352941  1
  Cu  Cu2285  1  0.34453782  0.83333333  0.32352941  1
  Cu  Cu2286  1  0.48739496  0.00000000  0.32352941  1
  Cu  Cu2287  1  0.48739496  0.16666667  0.32352941  1
  Cu  Cu2288  1  0.48739496  0.33333333  0.32352941  1
  Cu  Cu2289  1  0.48739496  0.50000000  0.32352941  1
  Cu  Cu2290  1  0.48739496  0.66666667  0.32352941  1
  Cu  Cu2291  1  0.48739496  0.83333333  0.32352941  1
  Cu  Cu2292  1  0.63025210  0.00000000  0.32352941  1
  Cu  Cu2293  1  0.63025210  0.16666667  0.32352941  1
  Cu  Cu2294  1  0.63025210  0.33333333  0.32352941  1
  Cu  Cu2295  1  0.63025210  0.50000000  0.32352941  1
  Cu  Cu2296  1  0.63025210  0.66666667  0.32352941  1
  Cu  Cu2297  1  0.63025210  0.83333333  0.32352941  1
  Cu  Cu2298  1  0.77310924  0.00000000  0.32352941  1
  Cu  Cu2299  1  0.77310924  0.16666667  0.32352941  1
  Cu  Cu2300  1  0.77310924  0.33333333  0.32352941  1
  Cu  Cu2301  1  0.77310924  0.50000000  0.32352941  1
  Cu  Cu2302  1  0.77310924  0.66666667  0.32352941  1
  Cu  Cu2303  1  0.77310924  0.83333333  0.32352941  1
  Cu  Cu2304  1  0.91596639  0.00000000  0.32352941  1
  Cu  Cu2305  1  0.91596639  0.16666667  0.32352941  1
  Cu  Cu2306  1  0.91596639  0.33333333  0.32352941  1
  Cu  Cu2307  1  0.91596639  0.50000000  0.32352941  1
  Cu  Cu2308  1  0.91596639  0.66666667  0.32352941  1
  Cu  Cu2309  1  0.91596639  0.83333333  0.32352941  1
  Cu  Cu2310  1  0.05882353  0.00000000  0.82352941  1
  Cu  Cu2311  1  0.05882353  0.16666667  0.82352941  1
  Cu  Cu2312  1  0.05882353  0.33333333  0.82352941  1
  Cu  Cu2313  1  0.05882353  0.50000000  0.82352941  1
  Cu  Cu2314  1  0.05882353  0.66666667  0.82352941  1
  Cu  Cu2315  1  0.05882353  0.83333333  0.82352941  1
  Cu  Cu2316  1  0.20168067  0.00000000  0.82352941  1
  Cu  Cu2317  1  0.20168067  0.16666667  0.82352941  1
  Cu  Cu2318  1  0.20168067  0.33333333  0.82352941  1
  Cu  Cu2319  1  0.20168067  0.50000000  0.82352941  1
  Cu  Cu2320  1  0.20168067  0.66666667  0.82352941  1
  Cu  Cu2321  1  0.20168067  0.83333333  0.82352941  1
  Cu  Cu2322  1  0.34453782  0.00000000  0.82352941  1
  Cu  Cu2323  1  0.34453782  0.16666667  0.82352941  1
  Cu  Cu2324  1  0.34453782  0.33333333  0.82352941  1
  Cu  Cu2325  1  0.34453782  0.50000000  0.82352941  1
  Cu  Cu2326  1  0.34453782  0.66666667  0.82352941  1
  Cu  Cu2327  1  0.34453782  0.83333333  0.82352941  1
  Cu  Cu2328  1  0.48739496  0.00000000  0.82352941  1
  Cu  Cu2329  1  0.48739496  0.16666667  0.82352941  1
  Cu  Cu2330  1  0.48739496  0.33333333  0.82352941  1
  Cu  Cu2331  1  0.48739496  0.50000000  0.82352941  1
  Cu  Cu2332  1  0.48739496  0.66666667  0.82352941  1
  Cu  Cu2333  1  0.48739496  0.83333333  0.82352941  1
  Cu  Cu2334  1  0.63025210  0.00000000  0.82352941  1
  Cu  Cu2335  1  0.63025210  0.16666667  0.82352941  1
  Cu  Cu2336  1  0.63025210  0.33333333  0.82352941  1
  Cu  Cu2337  1  0.63025210  0.50000000  0.82352941  1
  Cu  Cu2338  1  0.63025210  0.66666667  0.82352941  1
  Cu  Cu2339  1  0.63025210  0.83333333  0.82352941  1
  Cu  Cu2340  1  0.77310924  0.00000000  0.82352941  1
  Cu  Cu2341  1  0.77310924  0.16666667  0.82352941  1
  Cu  Cu2342  1  0.77310924  0.33333333  0.82352941  1
  Cu  Cu2343  1  0.77310924  0.50000000  0.82352941  1
  Cu  Cu2344  1  0.77310924  0.66666667  0.82352941  1
  Cu  Cu2345  1  0.77310924  0.83333333  0.82352941  1
  Cu  Cu2346  1  0.91596639  0.00000000  0.82352941  1
  Cu  Cu2347  1  0.91596639  0.16666667  0.82352941  1
  Cu  Cu2348  1  0.91596639  0.33333333  0.82352941  1
  Cu  Cu2349  1  0.91596639  0.50000000  0.82352941  1
  Cu  Cu2350  1  0.91596639  0.66666667  0.82352941  1
  Cu  Cu2351  1  0.91596639  0.83333333  0.82352941  1
  Cu  Cu2352  1  0.08823529  0.08333333  0.23529412  1
  Cu  Cu2353  1  0.08823529  0.25000000  0.23529412  1
  Cu  Cu2354  1  0.08823529  0.41666667  0.23529412  1
  Cu  Cu2355  1  0.08823529  0.58333333  0.23529412  1
  Cu  Cu2356  1  0.08823529  0.75000000  0.23529412  1
  Cu  Cu2357  1  0.08823529  0.91666667  0.23529412  1
  Cu  Cu2358  1  0.23109244  0.08333333  0.23529412  1
  Cu  Cu2359  1  0.23109244  0.25000000  0.23529412  1
  Cu  Cu2360  1  0.23109244  0.41666667  0.23529412  1
  Cu  Cu2361  1  0.23109244  0.58333333  0.23529412  1
  Cu  Cu2362  1  0.23109244  0.75000000  0.23529412  1
  Cu  Cu2363  1  0.23109244  0.91666667  0.23529412  1
  Cu  Cu2364  1  0.37394958  0.08333333  0.23529412  1
  Cu  Cu2365  1  0.37394958  0.25000000  0.23529412  1
  Cu  Cu2366  1  0.37394958  0.41666667  0.23529412  1
  Cu  Cu2367  1  0.37394958  0.58333333  0.23529412  1
  Cu  Cu2368  1  0.37394958  0.75000000  0.23529412  1
  Cu  Cu2369  1  0.37394958  0.91666667  0.23529412  1
  Cu  Cu2370  1  0.51680672  0.08333333  0.23529412  1
  Cu  Cu2371  1  0.51680672  0.25000000  0.23529412  1
  Cu  Cu2372  1  0.51680672  0.41666667  0.23529412  1
  Cu  Cu2373  1  0.51680672  0.58333333  0.23529412  1
  Cu  Cu2374  1  0.51680672  0.75000000  0.23529412  1
  Cu  Cu2375  1  0.51680672  0.91666667  0.23529412  1
  Cu  Cu2376  1  0.65966387  0.08333333  0.23529412  1
  Cu  Cu2377  1  0.65966387  0.25000000  0.23529412  1
  Cu  Cu2378  1  0.65966387  0.41666667  0.23529412  1
  Cu  Cu2379  1  0.65966387  0.58333333  0.23529412  1
  Cu  Cu2380  1  0.65966387  0.75000000  0.23529412  1
  Cu  Cu2381  1  0.65966387  0.91666667  0.23529412  1
  Cu  Cu2382  1  0.80252101  0.08333333  0.23529412  1
  Cu  Cu2383  1  0.80252101  0.25000000  0.23529412  1
  Cu  Cu2384  1  0.80252101  0.41666667  0.23529412  1
  Cu  Cu2385  1  0.80252101  0.58333333  0.23529412  1
  Cu  Cu2386  1  0.80252101  0.75000000  0.23529412  1
  Cu  Cu2387  1  0.80252101  0.91666667  0.23529412  1
  Cu  Cu2388  1  0.94537815  0.08333333  0.23529412  1
  Cu  Cu2389  1  0.94537815  0.25000000  0.23529412  1
  Cu  Cu2390  1  0.94537815  0.41666667  0.23529412  1
  Cu  Cu2391  1  0.94537815  0.58333333  0.23529412  1
  Cu  Cu2392  1  0.94537815  0.75000000  0.23529412  1
  Cu  Cu2393  1  0.94537815  0.91666667  0.23529412  1
  Cu  Cu2394  1  0.08823529  0.08333333  0.73529412  1
  Cu  Cu2395  1  0.08823529  0.25000000  0.73529412  1
  Cu  Cu2396  1  0.08823529  0.41666667  0.73529412  1
  Cu  Cu2397  1  0.08823529  0.58333333  0.73529412  1
  Cu  Cu2398  1  0.08823529  0.75000000  0.73529412  1
  Cu  Cu2399  1  0.08823529  0.91666667  0.73529412  1
  Cu  Cu2400  1  0.23109244  0.08333333  0.73529412  1
  Cu  Cu2401  1  0.23109244  0.25000000  0.73529412  1
  Cu  Cu2402  1  0.23109244  0.41666667  0.73529412  1
  Cu  Cu2403  1  0.23109244  0.58333333  0.73529412  1
  Cu  Cu2404  1  0.23109244  0.75000000  0.73529412  1
  Cu  Cu2405  1  0.23109244  0.91666667  0.73529412  1
  Cu  Cu2406  1  0.37394958  0.08333333  0.73529412  1
  Cu  Cu2407  1  0.37394958  0.25000000  0.73529412  1
  Cu  Cu2408  1  0.37394958  0.41666667  0.73529412  1
  Cu  Cu2409  1  0.37394958  0.58333333  0.73529412  1
  Cu  Cu2410  1  0.37394958  0.75000000  0.73529412  1
  Cu  Cu2411  1  0.37394958  0.91666667  0.73529412  1
  Cu  Cu2412  1  0.51680672  0.08333333  0.73529412  1
  Cu  Cu2413  1  0.51680672  0.25000000  0.73529412  1
  Cu  Cu2414  1  0.51680672  0.41666667  0.73529412  1
  Cu  Cu2415  1  0.51680672  0.58333333  0.73529412  1
  Cu  Cu2416  1  0.51680672  0.75000000  0.73529412  1
  Cu  Cu2417  1  0.51680672  0.91666667  0.73529412  1
  Cu  Cu2418  1  0.65966387  0.08333333  0.73529412  1
  Cu  Cu2419  1  0.65966387  0.25000000  0.73529412  1
  Cu  Cu2420  1  0.65966387  0.41666667  0.73529412  1
  Cu  Cu2421  1  0.65966387  0.58333333  0.73529412  1
  Cu  Cu2422  1  0.65966387  0.75000000  0.73529412  1
  Cu  Cu2423  1  0.65966387  0.91666667  0.73529412  1
  Cu  Cu2424  1  0.80252101  0.08333333  0.73529412  1
  Cu  Cu2425  1  0.80252101  0.25000000  0.73529412  1
  Cu  Cu2426  1  0.80252101  0.41666667  0.73529412  1
  Cu  Cu2427  1  0.80252101  0.58333333  0.73529412  1
  Cu  Cu2428  1  0.80252101  0.75000000  0.73529412  1
  Cu  Cu2429  1  0.80252101  0.91666667  0.73529412  1
  Cu  Cu2430  1  0.94537815  0.08333333  0.73529412  1
  Cu  Cu2431  1  0.94537815  0.25000000  0.73529412  1
  Cu  Cu2432  1  0.94537815  0.41666667  0.73529412  1
  Cu  Cu2433  1  0.94537815  0.58333333  0.73529412  1
  Cu  Cu2434  1  0.94537815  0.75000000  0.73529412  1
  Cu  Cu2435  1  0.94537815  0.91666667  0.73529412  1
  Cu  Cu2436  1  0.07142857  0.00000000  0.25000000  1
  Cu  Cu2437  1  0.07142857  0.16666667  0.25000000  1
  Cu  Cu2438  1  0.07142857  0.33333333  0.25000000  1
  Cu  Cu2439  1  0.07142857  0.50000000  0.25000000  1
  Cu  Cu2440  1  0.07142857  0.66666667  0.25000000  1
  Cu  Cu2441  1  0.07142857  0.83333333  0.25000000  1
  Cu  Cu2442  1  0.21428571  0.00000000  0.25000000  1
  Cu  Cu2443  1  0.21428571  0.16666667  0.25000000  1
  Cu  Cu2444  1  0.21428571  0.33333333  0.25000000  1
  Cu  Cu2445  1  0.21428571  0.50000000  0.25000000  1
  Cu  Cu2446  1  0.21428571  0.66666667  0.25000000  1
  Cu  Cu2447  1  0.21428571  0.83333333  0.25000000  1
  Cu  Cu2448  1  0.35714286  0.00000000  0.25000000  1
  Cu  Cu2449  1  0.35714286  0.16666667  0.25000000  1
  Cu  Cu2450  1  0.35714286  0.33333333  0.25000000  1
  Cu  Cu2451  1  0.35714286  0.50000000  0.25000000  1
  Cu  Cu2452  1  0.35714286  0.66666667  0.25000000  1
  Cu  Cu2453  1  0.35714286  0.83333333  0.25000000  1
  Cu  Cu2454  1  0.50000000  0.00000000  0.25000000  1
  Cu  Cu2455  1  0.50000000  0.16666667  0.25000000  1
  Cu  Cu2456  1  0.50000000  0.33333333  0.25000000  1
  Cu  Cu2457  1  0.50000000  0.50000000  0.25000000  1
  Cu  Cu2458  1  0.50000000  0.66666667  0.25000000  1
  Cu  Cu2459  1  0.50000000  0.83333333  0.25000000  1
  Cu  Cu2460  1  0.64285714  0.00000000  0.25000000  1
  Cu  Cu2461  1  0.64285714  0.16666667  0.25000000  1
  Cu  Cu2462  1  0.64285714  0.33333333  0.25000000  1
  Cu  Cu2463  1  0.64285714  0.50000000  0.25000000  1
  Cu  Cu2464  1  0.64285714  0.66666667  0.25000000  1
  Cu  Cu2465  1  0.64285714  0.83333333  0.25000000  1
  Cu  Cu2466  1  0.78571429  0.00000000  0.25000000  1
  Cu  Cu2467  1  0.78571429  0.16666667  0.25000000  1
  Cu  Cu2468  1  0.78571429  0.33333333  0.25000000  1
  Cu  Cu2469  1  0.78571429  0.50000000  0.25000000  1
  Cu  Cu2470  1  0.78571429  0.66666667  0.25000000  1
  Cu  Cu2471  1  0.78571429  0.83333333  0.25000000  1
  Cu  Cu2472  1  0.92857143  0.00000000  0.25000000  1
  Cu  Cu2473  1  0.92857143  0.16666667  0.25000000  1
  Cu  Cu2474  1  0.92857143  0.33333333  0.25000000  1
  Cu  Cu2475  1  0.92857143  0.50000000  0.25000000  1
  Cu  Cu2476  1  0.92857143  0.66666667  0.25000000  1
  Cu  Cu2477  1  0.92857143  0.83333333  0.25000000  1
  Cu  Cu2478  1  0.07142857  0.00000000  0.75000000  1
  Cu  Cu2479  1  0.07142857  0.16666667  0.75000000  1
  Cu  Cu2480  1  0.07142857  0.33333333  0.75000000  1
  Cu  Cu2481  1  0.07142857  0.50000000  0.75000000  1
  Cu  Cu2482  1  0.07142857  0.66666667  0.75000000  1
  Cu  Cu2483  1  0.07142857  0.83333333  0.75000000  1
  Cu  Cu2484  1  0.21428571  0.00000000  0.75000000  1
  Cu  Cu2485  1  0.21428571  0.16666667  0.75000000  1
  Cu  Cu2486  1  0.21428571  0.33333333  0.75000000  1
  Cu  Cu2487  1  0.21428571  0.50000000  0.75000000  1
  Cu  Cu2488  1  0.21428571  0.66666667  0.75000000  1
  Cu  Cu2489  1  0.21428571  0.83333333  0.75000000  1
  Cu  Cu2490  1  0.35714286  0.00000000  0.75000000  1
  Cu  Cu2491  1  0.35714286  0.16666667  0.75000000  1
  Cu  Cu2492  1  0.35714286  0.33333333  0.75000000  1
  Cu  Cu2493  1  0.35714286  0.50000000  0.75000000  1
  Cu  Cu2494  1  0.35714286  0.66666667  0.75000000  1
  Cu  Cu2495  1  0.35714286  0.83333333  0.75000000  1
  Cu  Cu2496  1  0.50000000  0.00000000  0.75000000  1
  Cu  Cu2497  1  0.50000000  0.16666667  0.75000000  1
  Cu  Cu2498  1  0.50000000  0.33333333  0.75000000  1
  Cu  Cu2499  1  0.50000000  0.50000000  0.75000000  1
  Cu  Cu2500  1  0.50000000  0.66666667  0.75000000  1
  Cu  Cu2501  1  0.50000000  0.83333333  0.75000000  1
  Cu  Cu2502  1  0.64285714  0.00000000  0.75000000  1
  Cu  Cu2503  1  0.64285714  0.16666667  0.75000000  1
  Cu  Cu2504  1  0.64285714  0.33333333  0.75000000  1
  Cu  Cu2505  1  0.64285714  0.50000000  0.75000000  1
  Cu  Cu2506  1  0.64285714  0.66666667  0.75000000  1
  Cu  Cu2507  1  0.64285714  0.83333333  0.75000000  1
  Cu  Cu2508  1  0.78571429  0.00000000  0.75000000  1
  Cu  Cu2509  1  0.78571429  0.16666667  0.75000000  1
  Cu  Cu2510  1  0.78571429  0.33333333  0.75000000  1
  Cu  Cu2511  1  0.78571429  0.50000000  0.75000000  1
  Cu  Cu2512  1  0.78571429  0.66666667  0.75000000  1
  Cu  Cu2513  1  0.78571429  0.83333333  0.75000000  1
  Cu  Cu2514  1  0.92857143  0.00000000  0.75000000  1
  Cu  Cu2515  1  0.92857143  0.16666667  0.75000000  1
  Cu  Cu2516  1  0.92857143  0.33333333  0.75000000  1
  Cu  Cu2517  1  0.92857143  0.50000000  0.75000000  1
  Cu  Cu2518  1  0.92857143  0.66666667  0.75000000  1
  Cu  Cu2519  1  0.92857143  0.83333333  0.75000000  1
  Cu  Cu2520  1  0.10084034  0.08333333  0.16176471  1
  Cu  Cu2521  1  0.10084034  0.25000000  0.16176471  1
  Cu  Cu2522  1  0.10084034  0.41666667  0.16176471  1
  Cu  Cu2523  1  0.10084034  0.58333333  0.16176471  1
  Cu  Cu2524  1  0.10084034  0.75000000  0.16176471  1
  Cu  Cu2525  1  0.10084034  0.91666667  0.16176471  1
  Cu  Cu2526  1  0.24369748  0.08333333  0.16176471  1
  Cu  Cu2527  1  0.24369748  0.25000000  0.16176471  1
  Cu  Cu2528  1  0.24369748  0.41666667  0.16176471  1
  Cu  Cu2529  1  0.24369748  0.58333333  0.16176471  1
  Cu  Cu2530  1  0.24369748  0.75000000  0.16176471  1
  Cu  Cu2531  1  0.24369748  0.91666667  0.16176471  1
  Cu  Cu2532  1  0.38655462  0.08333333  0.16176471  1
  Cu  Cu2533  1  0.38655462  0.25000000  0.16176471  1
  Cu  Cu2534  1  0.38655462  0.41666667  0.16176471  1
  Cu  Cu2535  1  0.38655462  0.58333333  0.16176471  1
  Cu  Cu2536  1  0.38655462  0.75000000  0.16176471  1
  Cu  Cu2537  1  0.38655462  0.91666667  0.16176471  1
  Cu  Cu2538  1  0.52941176  0.08333333  0.16176471  1
  Cu  Cu2539  1  0.52941176  0.25000000  0.16176471  1
  Cu  Cu2540  1  0.52941176  0.41666667  0.16176471  1
  Cu  Cu2541  1  0.52941176  0.58333333  0.16176471  1
  Cu  Cu2542  1  0.52941176  0.75000000  0.16176471  1
  Cu  Cu2543  1  0.52941176  0.91666667  0.16176471  1
  Cu  Cu2544  1  0.67226891  0.08333333  0.16176471  1
  Cu  Cu2545  1  0.67226891  0.25000000  0.16176471  1
  Cu  Cu2546  1  0.67226891  0.41666667  0.16176471  1
  Cu  Cu2547  1  0.67226891  0.58333333  0.16176471  1
  Cu  Cu2548  1  0.67226891  0.75000000  0.16176471  1
  Cu  Cu2549  1  0.67226891  0.91666667  0.16176471  1
  Cu  Cu2550  1  0.81512605  0.08333333  0.16176471  1
  Cu  Cu2551  1  0.81512605  0.25000000  0.16176471  1
  Cu  Cu2552  1  0.81512605  0.41666667  0.16176471  1
  Cu  Cu2553  1  0.81512605  0.58333333  0.16176471  1
  Cu  Cu2554  1  0.81512605  0.75000000  0.16176471  1
  Cu  Cu2555  1  0.81512605  0.91666667  0.16176471  1
  Cu  Cu2556  1  0.95798319  0.08333333  0.16176471  1
  Cu  Cu2557  1  0.95798319  0.25000000  0.16176471  1
  Cu  Cu2558  1  0.95798319  0.41666667  0.16176471  1
  Cu  Cu2559  1  0.95798319  0.58333333  0.16176471  1
  Cu  Cu2560  1  0.95798319  0.75000000  0.16176471  1
  Cu  Cu2561  1  0.95798319  0.91666667  0.16176471  1
  Cu  Cu2562  1  0.10084034  0.08333333  0.66176471  1
  Cu  Cu2563  1  0.10084034  0.25000000  0.66176471  1
  Cu  Cu2564  1  0.10084034  0.41666667  0.66176471  1
  Cu  Cu2565  1  0.10084034  0.58333333  0.66176471  1
  Cu  Cu2566  1  0.10084034  0.75000000  0.66176471  1
  Cu  Cu2567  1  0.10084034  0.91666667  0.66176471  1
  Cu  Cu2568  1  0.24369748  0.08333333  0.66176471  1
  Cu  Cu2569  1  0.24369748  0.25000000  0.66176471  1
  Cu  Cu2570  1  0.24369748  0.41666667  0.66176471  1
  Cu  Cu2571  1  0.24369748  0.58333333  0.66176471  1
  Cu  Cu2572  1  0.24369748  0.75000000  0.66176471  1
  Cu  Cu2573  1  0.24369748  0.91666667  0.66176471  1
  Cu  Cu2574  1  0.38655462  0.08333333  0.66176471  1
  Cu  Cu2575  1  0.38655462  0.25000000  0.66176471  1
  Cu  Cu2576  1  0.38655462  0.41666667  0.66176471  1
  Cu  Cu2577  1  0.38655462  0.58333333  0.66176471  1
  Cu  Cu2578  1  0.38655462  0.75000000  0.66176471  1
  Cu  Cu2579  1  0.38655462  0.91666667  0.66176471  1
  Cu  Cu2580  1  0.52941176  0.08333333  0.66176471  1
  Cu  Cu2581  1  0.52941176  0.25000000  0.66176471  1
  Cu  Cu2582  1  0.52941176  0.41666667  0.66176471  1
  Cu  Cu2583  1  0.52941176  0.58333333  0.66176471  1
  Cu  Cu2584  1  0.52941176  0.75000000  0.66176471  1
  Cu  Cu2585  1  0.52941176  0.91666667  0.66176471  1
  Cu  Cu2586  1  0.67226891  0.08333333  0.66176471  1
  Cu  Cu2587  1  0.67226891  0.25000000  0.66176471  1
  Cu  Cu2588  1  0.67226891  0.41666667  0.66176471  1
  Cu  Cu2589  1  0.67226891  0.58333333  0.66176471  1
  Cu  Cu2590  1  0.67226891  0.75000000  0.66176471  1
  Cu  Cu2591  1  0.67226891  0.91666667  0.66176471  1
  Cu  Cu2592  1  0.81512605  0.08333333  0.66176471  1
  Cu  Cu2593  1  0.81512605  0.25000000  0.66176471  1
  Cu  Cu2594  1  0.81512605  0.41666667  0.66176471  1
  Cu  Cu2595  1  0.81512605  0.58333333  0.66176471  1
  Cu  Cu2596  1  0.81512605  0.75000000  0.66176471  1
  Cu  Cu2597  1  0.81512605  0.91666667  0.66176471  1
  Cu  Cu2598  1  0.95798319  0.08333333  0.66176471  1
  Cu  Cu2599  1  0.95798319  0.25000000  0.66176471  1
  Cu  Cu2600  1  0.95798319  0.41666667  0.66176471  1
  Cu  Cu2601  1  0.95798319  0.58333333  0.66176471  1
  Cu  Cu2602  1  0.95798319  0.75000000  0.66176471  1
  Cu  Cu2603  1  0.95798319  0.91666667  0.66176471  1
  Cu  Cu2604  1  0.08403361  0.00000000  0.17647059  1
  Cu  Cu2605  1  0.08403361  0.16666667  0.17647059  1
  Cu  Cu2606  1  0.08403361  0.33333333  0.17647059  1
  Cu  Cu2607  1  0.08403361  0.50000000  0.17647059  1
  Cu  Cu2608  1  0.08403361  0.66666667  0.17647059  1
  Cu  Cu2609  1  0.08403361  0.83333333  0.17647059  1
  Cu  Cu2610  1  0.22689076  0.00000000  0.17647059  1
  Cu  Cu2611  1  0.22689076  0.16666667  0.17647059  1
  Cu  Cu2612  1  0.22689076  0.33333333  0.17647059  1
  Cu  Cu2613  1  0.22689076  0.50000000  0.17647059  1
  Cu  Cu2614  1  0.22689076  0.66666667  0.17647059  1
  Cu  Cu2615  1  0.22689076  0.83333333  0.17647059  1
  Cu  Cu2616  1  0.36974790  0.00000000  0.17647059  1
  Cu  Cu2617  1  0.36974790  0.16666667  0.17647059  1
  Cu  Cu2618  1  0.36974790  0.33333333  0.17647059  1
  Cu  Cu2619  1  0.36974790  0.50000000  0.17647059  1
  Cu  Cu2620  1  0.36974790  0.66666667  0.17647059  1
  Cu  Cu2621  1  0.36974790  0.83333333  0.17647059  1
  Cu  Cu2622  1  0.51260504  0.00000000  0.17647059  1
  Cu  Cu2623  1  0.51260504  0.16666667  0.17647059  1
  Cu  Cu2624  1  0.51260504  0.33333333  0.17647059  1
  Cu  Cu2625  1  0.51260504  0.50000000  0.17647059  1
  Cu  Cu2626  1  0.51260504  0.66666667  0.17647059  1
  Cu  Cu2627  1  0.51260504  0.83333333  0.17647059  1
  Cu  Cu2628  1  0.65546218  0.00000000  0.17647059  1
  Cu  Cu2629  1  0.65546218  0.16666667  0.17647059  1
  Cu  Cu2630  1  0.65546218  0.33333333  0.17647059  1
  Cu  Cu2631  1  0.65546218  0.50000000  0.17647059  1
  Cu  Cu2632  1  0.65546218  0.66666667  0.17647059  1
  Cu  Cu2633  1  0.65546218  0.83333333  0.17647059  1
  Cu  Cu2634  1  0.79831933  0.00000000  0.17647059  1
  Cu  Cu2635  1  0.79831933  0.16666667  0.17647059  1
  Cu  Cu2636  1  0.79831933  0.33333333  0.17647059  1
  Cu  Cu2637  1  0.79831933  0.50000000  0.17647059  1
  Cu  Cu2638  1  0.79831933  0.66666667  0.17647059  1
  Cu  Cu2639  1  0.79831933  0.83333333  0.17647059  1
  Cu  Cu2640  1  0.94117647  0.00000000  0.17647059  1
  Cu  Cu2641  1  0.94117647  0.16666667  0.17647059  1
  Cu  Cu2642  1  0.94117647  0.33333333  0.17647059  1
  Cu  Cu2643  1  0.94117647  0.50000000  0.17647059  1
  Cu  Cu2644  1  0.94117647  0.66666667  0.17647059  1
  Cu  Cu2645  1  0.94117647  0.83333333  0.17647059  1
  Cu  Cu2646  1  0.08403361  0.00000000  0.67647059  1
  Cu  Cu2647  1  0.08403361  0.16666667  0.67647059  1
  Cu  Cu2648  1  0.08403361  0.33333333  0.67647059  1
  Cu  Cu2649  1  0.08403361  0.50000000  0.67647059  1
  Cu  Cu2650  1  0.08403361  0.66666667  0.67647059  1
  Cu  Cu2651  1  0.08403361  0.83333333  0.67647059  1
  Cu  Cu2652  1  0.22689076  0.00000000  0.67647059  1
  Cu  Cu2653  1  0.22689076  0.16666667  0.67647059  1
  Cu  Cu2654  1  0.22689076  0.33333333  0.67647059  1
  Cu  Cu2655  1  0.22689076  0.50000000  0.67647059  1
  Cu  Cu2656  1  0.22689076  0.66666667  0.67647059  1
  Cu  Cu2657  1  0.22689076  0.83333333  0.67647059  1
  Cu  Cu2658  1  0.36974790  0.00000000  0.67647059  1
  Cu  Cu2659  1  0.36974790  0.16666667  0.67647059  1
  Cu  Cu2660  1  0.36974790  0.33333333  0.67647059  1
  Cu  Cu2661  1  0.36974790  0.50000000  0.67647059  1
  Cu  Cu2662  1  0.36974790  0.66666667  0.67647059  1
  Cu  Cu2663  1  0.36974790  0.83333333  0.67647059  1
  Cu  Cu2664  1  0.51260504  0.00000000  0.67647059  1
  Cu  Cu2665  1  0.51260504  0.16666667  0.67647059  1
  Cu  Cu2666  1  0.51260504  0.33333333  0.67647059  1
  Cu  Cu2667  1  0.51260504  0.50000000  0.67647059  1
  Cu  Cu2668  1  0.51260504  0.66666667  0.67647059  1
  Cu  Cu2669  1  0.51260504  0.83333333  0.67647059  1
  Cu  Cu2670  1  0.65546218  0.00000000  0.67647059  1
  Cu  Cu2671  1  0.65546218  0.16666667  0.67647059  1
  Cu  Cu2672  1  0.65546218  0.33333333  0.67647059  1
  Cu  Cu2673  1  0.65546218  0.50000000  0.67647059  1
  Cu  Cu2674  1  0.65546218  0.66666667  0.67647059  1
  Cu  Cu2675  1  0.65546218  0.83333333  0.67647059  1
  Cu  Cu2676  1  0.79831933  0.00000000  0.67647059  1
  Cu  Cu2677  1  0.79831933  0.16666667  0.67647059  1
  Cu  Cu2678  1  0.79831933  0.33333333  0.67647059  1
  Cu  Cu2679  1  0.79831933  0.50000000  0.67647059  1
  Cu  Cu2680  1  0.79831933  0.66666667  0.67647059  1
  Cu  Cu2681  1  0.79831933  0.83333333  0.67647059  1
  Cu  Cu2682  1  0.94117647  0.00000000  0.67647059  1
  Cu  Cu2683  1  0.94117647  0.16666667  0.67647059  1
  Cu  Cu2684  1  0.94117647  0.33333333  0.67647059  1
  Cu  Cu2685  1  0.94117647  0.50000000  0.67647059  1
  Cu  Cu2686  1  0.94117647  0.66666667  0.67647059  1
  Cu  Cu2687  1  0.94117647  0.83333333  0.67647059  1
  Cu  Cu2688  1  0.11344538  0.08333333  0.08823529  1
  Cu  Cu2689  1  0.11344538  0.25000000  0.08823529  1
  Cu  Cu2690  1  0.11344538  0.41666667  0.08823529  1
  Cu  Cu2691  1  0.11344538  0.58333333  0.08823529  1
  Cu  Cu2692  1  0.11344538  0.75000000  0.08823529  1
  Cu  Cu2693  1  0.11344538  0.91666667  0.08823529  1
  Cu  Cu2694  1  0.25630252  0.08333333  0.08823529  1
  Cu  Cu2695  1  0.25630252  0.25000000  0.08823529  1
  Cu  Cu2696  1  0.25630252  0.41666667  0.08823529  1
  Cu  Cu2697  1  0.25630252  0.58333333  0.08823529  1
  Cu  Cu2698  1  0.25630252  0.75000000  0.08823529  1
  Cu  Cu2699  1  0.25630252  0.91666667  0.08823529  1
  Cu  Cu2700  1  0.39915966  0.08333333  0.08823529  1
  Cu  Cu2701  1  0.39915966  0.25000000  0.08823529  1
  Cu  Cu2702  1  0.39915966  0.41666667  0.08823529  1
  Cu  Cu2703  1  0.39915966  0.58333333  0.08823529  1
  Cu  Cu2704  1  0.39915966  0.75000000  0.08823529  1
  Cu  Cu2705  1  0.39915966  0.91666667  0.08823529  1
  Cu  Cu2706  1  0.54201681  0.08333333  0.08823529  1
  Cu  Cu2707  1  0.54201681  0.25000000  0.08823529  1
  Cu  Cu2708  1  0.54201681  0.41666667  0.08823529  1
  Cu  Cu2709  1  0.54201681  0.58333333  0.08823529  1
  Cu  Cu2710  1  0.54201681  0.75000000  0.08823529  1
  Cu  Cu2711  1  0.54201681  0.91666667  0.08823529  1
  Cu  Cu2712  1  0.68487395  0.08333333  0.08823529  1
  Cu  Cu2713  1  0.68487395  0.25000000  0.08823529  1
  Cu  Cu2714  1  0.68487395  0.41666667  0.08823529  1
  Cu  Cu2715  1  0.68487395  0.58333333  0.08823529  1
  Cu  Cu2716  1  0.68487395  0.75000000  0.08823529  1
  Cu  Cu2717  1  0.68487395  0.91666667  0.08823529  1
  Cu  Cu2718  1  0.82773109  0.08333333  0.08823529  1
  Cu  Cu2719  1  0.82773109  0.25000000  0.08823529  1
  Cu  Cu2720  1  0.82773109  0.41666667  0.08823529  1
  Cu  Cu2721  1  0.82773109  0.58333333  0.08823529  1
  Cu  Cu2722  1  0.82773109  0.75000000  0.08823529  1
  Cu  Cu2723  1  0.82773109  0.91666667  0.08823529  1
  Cu  Cu2724  1  0.97058824  0.08333333  0.08823529  1
  Cu  Cu2725  1  0.97058824  0.25000000  0.08823529  1
  Cu  Cu2726  1  0.97058824  0.41666667  0.08823529  1
  Cu  Cu2727  1  0.97058824  0.58333333  0.08823529  1
  Cu  Cu2728  1  0.97058824  0.75000000  0.08823529  1
  Cu  Cu2729  1  0.97058824  0.91666667  0.08823529  1
  Cu  Cu2730  1  0.11344538  0.08333333  0.58823529  1
  Cu  Cu2731  1  0.11344538  0.25000000  0.58823529  1
  Cu  Cu2732  1  0.11344538  0.41666667  0.58823529  1
  Cu  Cu2733  1  0.11344538  0.58333333  0.58823529  1
  Cu  Cu2734  1  0.11344538  0.75000000  0.58823529  1
  Cu  Cu2735  1  0.11344538  0.91666667  0.58823529  1
  Cu  Cu2736  1  0.25630252  0.08333333  0.58823529  1
  Cu  Cu2737  1  0.25630252  0.25000000  0.58823529  1
  Cu  Cu2738  1  0.25630252  0.41666667  0.58823529  1
  Cu  Cu2739  1  0.25630252  0.58333333  0.58823529  1
  Cu  Cu2740  1  0.25630252  0.75000000  0.58823529  1
  Cu  Cu2741  1  0.25630252  0.91666667  0.58823529  1
  Cu  Cu2742  1  0.39915966  0.08333333  0.58823529  1
  Cu  Cu2743  1  0.39915966  0.25000000  0.58823529  1
  Cu  Cu2744  1  0.39915966  0.41666667  0.58823529  1
  Cu  Cu2745  1  0.39915966  0.58333333  0.58823529  1
  Cu  Cu2746  1  0.39915966  0.75000000  0.58823529  1
  Cu  Cu2747  1  0.39915966  0.91666667  0.58823529  1
  Cu  Cu2748  1  0.54201681  0.08333333  0.58823529  1
  Cu  Cu2749  1  0.54201681  0.25000000  0.58823529  1
  Cu  Cu2750  1  0.54201681  0.41666667  0.58823529  1
  Cu  Cu2751  1  0.54201681  0.58333333  0.58823529  1
  Cu  Cu2752  1  0.54201681  0.75000000  0.58823529  1
  Cu  Cu2753  1  0.54201681  0.91666667  0.58823529  1
  Cu  Cu2754  1  0.68487395  0.08333333  0.58823529  1
  Cu  Cu2755  1  0.68487395  0.25000000  0.58823529  1
  Cu  Cu2756  1  0.68487395  0.41666667  0.58823529  1
  Cu  Cu2757  1  0.68487395  0.58333333  0.58823529  1
  Cu  Cu2758  1  0.68487395  0.75000000  0.58823529  1
  Cu  Cu2759  1  0.68487395  0.91666667  0.58823529  1
  Cu  Cu2760  1  0.82773109  0.08333333  0.58823529  1
  Cu  Cu2761  1  0.82773109  0.25000000  0.58823529  1
  Cu  Cu2762  1  0.82773109  0.41666667  0.58823529  1
  Cu  Cu2763  1  0.82773109  0.58333333  0.58823529  1
  Cu  Cu2764  1  0.82773109  0.75000000  0.58823529  1
  Cu  Cu2765  1  0.82773109  0.91666667  0.58823529  1
  Cu  Cu2766  1  0.97058824  0.08333333  0.58823529  1
  Cu  Cu2767  1  0.97058824  0.25000000  0.58823529  1
  Cu  Cu2768  1  0.97058824  0.41666667  0.58823529  1
  Cu  Cu2769  1  0.97058824  0.58333333  0.58823529  1
  Cu  Cu2770  1  0.97058824  0.75000000  0.58823529  1
  Cu  Cu2771  1  0.97058824  0.91666667  0.58823529  1
  Cu  Cu2772  1  0.09663866  0.00000000  0.10294118  1
  Cu  Cu2773  1  0.09663866  0.16666667  0.10294118  1
  Cu  Cu2774  1  0.09663866  0.33333333  0.10294118  1
  Cu  Cu2775  1  0.09663866  0.50000000  0.10294118  1
  Cu  Cu2776  1  0.09663866  0.66666667  0.10294118  1
  Cu  Cu2777  1  0.09663866  0.83333333  0.10294118  1
  Cu  Cu2778  1  0.23949580  0.00000000  0.10294118  1
  Cu  Cu2779  1  0.23949580  0.16666667  0.10294118  1
  Cu  Cu2780  1  0.23949580  0.33333333  0.10294118  1
  Cu  Cu2781  1  0.23949580  0.50000000  0.10294118  1
  Cu  Cu2782  1  0.23949580  0.66666667  0.10294118  1
  Cu  Cu2783  1  0.23949580  0.83333333  0.10294118  1
  Cu  Cu2784  1  0.38235294  0.00000000  0.10294118  1
  Cu  Cu2785  1  0.38235294  0.16666667  0.10294118  1
  Cu  Cu2786  1  0.38235294  0.33333333  0.10294118  1
  Cu  Cu2787  1  0.38235294  0.50000000  0.10294118  1
  Cu  Cu2788  1  0.38235294  0.66666667  0.10294118  1
  Cu  Cu2789  1  0.38235294  0.83333333  0.10294118  1
  Cu  Cu2790  1  0.52521008  0.00000000  0.10294118  1
  Cu  Cu2791  1  0.52521008  0.16666667  0.10294118  1
  Cu  Cu2792  1  0.52521008  0.33333333  0.10294118  1
  Cu  Cu2793  1  0.52521008  0.50000000  0.10294118  1
  Cu  Cu2794  1  0.52521008  0.66666667  0.10294118  1
  Cu  Cu2795  1  0.52521008  0.83333333  0.10294118  1
  Cu  Cu2796  1  0.66806723  0.00000000  0.10294118  1
  Cu  Cu2797  1  0.66806723  0.16666667  0.10294118  1
  Cu  Cu2798  1  0.66806723  0.33333333  0.10294118  1
  Cu  Cu2799  1  0.66806723  0.50000000  0.10294118  1
  Cu  Cu2800  1  0.66806723  0.66666667  0.10294118  1
  Cu  Cu2801  1  0.66806723  0.83333333  0.10294118  1
  Cu  Cu2802  1  0.81092437  0.00000000  0.10294118  1
  Cu  Cu2803  1  0.81092437  0.16666667  0.10294118  1
  Cu  Cu2804  1  0.81092437  0.33333333  0.10294118  1
  Cu  Cu2805  1  0.81092437  0.50000000  0.10294118  1
  Cu  Cu2806  1  0.81092437  0.66666667  0.10294118  1
  Cu  Cu2807  1  0.81092437  0.83333333  0.10294118  1
  Cu  Cu2808  1  0.95378151  0.00000000  0.10294118  1
  Cu  Cu2809  1  0.95378151  0.16666667  0.10294118  1
  Cu  Cu2810  1  0.95378151  0.33333333  0.10294118  1
  Cu  Cu2811  1  0.95378151  0.50000000  0.10294118  1
  Cu  Cu2812  1  0.95378151  0.66666667  0.10294118  1
  Cu  Cu2813  1  0.95378151  0.83333333  0.10294118  1
  Cu  Cu2814  1  0.09663866  0.00000000  0.60294118  1
  Cu  Cu2815  1  0.09663866  0.16666667  0.60294118  1
  Cu  Cu2816  1  0.09663866  0.33333333  0.60294118  1
  Cu  Cu2817  1  0.09663866  0.50000000  0.60294118  1
  Cu  Cu2818  1  0.09663866  0.66666667  0.60294118  1
  Cu  Cu2819  1  0.09663866  0.83333333  0.60294118  1
  Cu  Cu2820  1  0.23949580  0.00000000  0.60294118  1
  Cu  Cu2821  1  0.23949580  0.16666667  0.60294118  1
  Cu  Cu2822  1  0.23949580  0.33333333  0.60294118  1
  Cu  Cu2823  1  0.23949580  0.50000000  0.60294118  1
  Cu  Cu2824  1  0.23949580  0.66666667  0.60294118  1
  Cu  Cu2825  1  0.23949580  0.83333333  0.60294118  1
  Cu  Cu2826  1  0.38235294  0.00000000  0.60294118  1
  Cu  Cu2827  1  0.38235294  0.16666667  0.60294118  1
  Cu  Cu2828  1  0.38235294  0.33333333  0.60294118  1
  Cu  Cu2829  1  0.38235294  0.50000000  0.60294118  1
  Cu  Cu2830  1  0.38235294  0.66666667  0.60294118  1
  Cu  Cu2831  1  0.38235294  0.83333333  0.60294118  1
  Cu  Cu2832  1  0.52521008  0.00000000  0.60294118  1
  Cu  Cu2833  1  0.52521008  0.16666667  0.60294118  1
  Cu  Cu2834  1  0.52521008  0.33333333  0.60294118  1
  Cu  Cu2835  1  0.52521008  0.50000000  0.60294118  1
  Cu  Cu2836  1  0.52521008  0.66666667  0.60294118  1
  Cu  Cu2837  1  0.52521008  0.83333333  0.60294118  1
  Cu  Cu2838  1  0.66806723  0.00000000  0.60294118  1
  Cu  Cu2839  1  0.66806723  0.16666667  0.60294118  1
  Cu  Cu2840  1  0.66806723  0.33333333  0.60294118  1
  Cu  Cu2841  1  0.66806723  0.50000000  0.60294118  1
  Cu  Cu2842  1  0.66806723  0.66666667  0.60294118  1
  Cu  Cu2843  1  0.66806723  0.83333333  0.60294118  1
  Cu  Cu2844  1  0.81092437  0.00000000  0.60294118  1
  Cu  Cu2845  1  0.81092437  0.16666667  0.60294118  1
  Cu  Cu2846  1  0.81092437  0.33333333  0.60294118  1
  Cu  Cu2847  1  0.81092437  0.50000000  0.60294118  1
  Cu  Cu2848  1  0.81092437  0.66666667  0.60294118  1
  Cu  Cu2849  1  0.81092437  0.83333333  0.60294118  1
  Cu  Cu2850  1  0.95378151  0.00000000  0.60294118  1
  Cu  Cu2851  1  0.95378151  0.16666667  0.60294118  1
  Cu  Cu2852  1  0.95378151  0.33333333  0.60294118  1
  Cu  Cu2853  1  0.95378151  0.50000000  0.60294118  1
  Cu  Cu2854  1  0.95378151  0.66666667  0.60294118  1
  Cu  Cu2855  1  0.95378151  0.83333333  0.60294118  1
  Cu  Cu2856  1  0.12605042  0.08333333  0.01470588  1
  Cu  Cu2857  1  0.12605042  0.25000000  0.01470588  1
  Cu  Cu2858  1  0.12605042  0.41666667  0.01470588  1
  Cu  Cu2859  1  0.12605042  0.58333333  0.01470588  1
  Cu  Cu2860  1  0.12605042  0.75000000  0.01470588  1
  Cu  Cu2861  1  0.12605042  0.91666667  0.01470588  1
  Cu  Cu2862  1  0.26890756  0.08333333  0.01470588  1
  Cu  Cu2863  1  0.26890756  0.25000000  0.01470588  1
  Cu  Cu2864  1  0.26890756  0.41666667  0.01470588  1
  Cu  Cu2865  1  0.26890756  0.58333333  0.01470588  1
  Cu  Cu2866  1  0.26890756  0.75000000  0.01470588  1
  Cu  Cu2867  1  0.26890756  0.91666667  0.01470588  1
  Cu  Cu2868  1  0.41176471  0.08333333  0.01470588  1
  Cu  Cu2869  1  0.41176471  0.25000000  0.01470588  1
  Cu  Cu2870  1  0.41176471  0.41666667  0.01470588  1
  Cu  Cu2871  1  0.41176471  0.58333333  0.01470588  1
  Cu  Cu2872  1  0.41176471  0.75000000  0.01470588  1
  Cu  Cu2873  1  0.41176471  0.91666667  0.01470588  1
  Cu  Cu2874  1  0.55462185  0.08333333  0.01470588  1
  Cu  Cu2875  1  0.55462185  0.25000000  0.01470588  1
  Cu  Cu2876  1  0.55462185  0.41666667  0.01470588  1
  Cu  Cu2877  1  0.55462185  0.58333333  0.01470588  1
  Cu  Cu2878  1  0.55462185  0.75000000  0.01470588  1
  Cu  Cu2879  1  0.55462185  0.91666667  0.01470588  1
  Cu  Cu2880  1  0.69747899  0.08333333  0.01470588  1
  Cu  Cu2881  1  0.69747899  0.25000000  0.01470588  1
  Cu  Cu2882  1  0.69747899  0.41666667  0.01470588  1
  Cu  Cu2883  1  0.69747899  0.58333333  0.01470588  1
  Cu  Cu2884  1  0.69747899  0.75000000  0.01470588  1
  Cu  Cu2885  1  0.69747899  0.91666667  0.01470588  1
  Cu  Cu2886  1  0.84033613  0.08333333  0.01470588  1
  Cu  Cu2887  1  0.84033613  0.25000000  0.01470588  1
  Cu  Cu2888  1  0.84033613  0.41666667  0.01470588  1
  Cu  Cu2889  1  0.84033613  0.58333333  0.01470588  1
  Cu  Cu2890  1  0.84033613  0.75000000  0.01470588  1
  Cu  Cu2891  1  0.84033613  0.91666667  0.01470588  1
  Cu  Cu2892  1  0.98319328  0.08333333  0.01470588  1
  Cu  Cu2893  1  0.98319328  0.25000000  0.01470588  1
  Cu  Cu2894  1  0.98319328  0.41666667  0.01470588  1
  Cu  Cu2895  1  0.98319328  0.58333333  0.01470588  1
  Cu  Cu2896  1  0.98319328  0.75000000  0.01470588  1
  Cu  Cu2897  1  0.98319328  0.91666667  0.01470588  1
  Cu  Cu2898  1  0.12605042  0.08333333  0.51470588  1
  Cu  Cu2899  1  0.12605042  0.25000000  0.51470588  1
  Cu  Cu2900  1  0.12605042  0.41666667  0.51470588  1
  Cu  Cu2901  1  0.12605042  0.58333333  0.51470588  1
  Cu  Cu2902  1  0.12605042  0.75000000  0.51470588  1
  Cu  Cu2903  1  0.12605042  0.91666667  0.51470588  1
  Cu  Cu2904  1  0.26890756  0.08333333  0.51470588  1
  Cu  Cu2905  1  0.26890756  0.25000000  0.51470588  1
  Cu  Cu2906  1  0.26890756  0.41666667  0.51470588  1
  Cu  Cu2907  1  0.26890756  0.58333333  0.51470588  1
  Cu  Cu2908  1  0.26890756  0.75000000  0.51470588  1
  Cu  Cu2909  1  0.26890756  0.91666667  0.51470588  1
  Cu  Cu2910  1  0.41176471  0.08333333  0.51470588  1
  Cu  Cu2911  1  0.41176471  0.25000000  0.51470588  1
  Cu  Cu2912  1  0.41176471  0.41666667  0.51470588  1
  Cu  Cu2913  1  0.41176471  0.58333333  0.51470588  1
  Cu  Cu2914  1  0.41176471  0.75000000  0.51470588  1
  Cu  Cu2915  1  0.41176471  0.91666667  0.51470588  1
  Cu  Cu2916  1  0.55462185  0.08333333  0.51470588  1
  Cu  Cu2917  1  0.55462185  0.25000000  0.51470588  1
  Cu  Cu2918  1  0.55462185  0.41666667  0.51470588  1
  Cu  Cu2919  1  0.55462185  0.58333333  0.51470588  1
  Cu  Cu2920  1  0.55462185  0.75000000  0.51470588  1
  Cu  Cu2921  1  0.55462185  0.91666667  0.51470588  1
  Cu  Cu2922  1  0.69747899  0.08333333  0.51470588  1
  Cu  Cu2923  1  0.69747899  0.25000000  0.51470588  1
  Cu  Cu2924  1  0.69747899  0.41666667  0.51470588  1
  Cu  Cu2925  1  0.69747899  0.58333333  0.51470588  1
  Cu  Cu2926  1  0.69747899  0.75000000  0.51470588  1
  Cu  Cu2927  1  0.69747899  0.91666667  0.51470588  1
  Cu  Cu2928  1  0.84033613  0.08333333  0.51470588  1
  Cu  Cu2929  1  0.84033613  0.25000000  0.51470588  1
  Cu  Cu2930  1  0.84033613  0.41666667  0.51470588  1
  Cu  Cu2931  1  0.84033613  0.58333333  0.51470588  1
  Cu  Cu2932  1  0.84033613  0.75000000  0.51470588  1
  Cu  Cu2933  1  0.84033613  0.91666667  0.51470588  1
  Cu  Cu2934  1  0.98319328  0.08333333  0.51470588  1
  Cu  Cu2935  1  0.98319328  0.25000000  0.51470588  1
  Cu  Cu2936  1  0.98319328  0.41666667  0.51470588  1
  Cu  Cu2937  1  0.98319328  0.58333333  0.51470588  1
  Cu  Cu2938  1  0.98319328  0.75000000  0.51470588  1
  Cu  Cu2939  1  0.98319328  0.91666667  0.51470588  1
  Cu  Cu2940  1  0.10924370  0.00000000  0.02941176  1
  Cu  Cu2941  1  0.10924370  0.16666667  0.02941176  1
  Cu  Cu2942  1  0.10924370  0.33333333  0.02941176  1
  Cu  Cu2943  1  0.10924370  0.50000000  0.02941176  1
  Cu  Cu2944  1  0.10924370  0.66666667  0.02941176  1
  Cu  Cu2945  1  0.10924370  0.83333333  0.02941176  1
  Cu  Cu2946  1  0.25210084  0.00000000  0.02941176  1
  Cu  Cu2947  1  0.25210084  0.16666667  0.02941176  1
  Cu  Cu2948  1  0.25210084  0.33333333  0.02941176  1
  Cu  Cu2949  1  0.25210084  0.50000000  0.02941176  1
  Cu  Cu2950  1  0.25210084  0.66666667  0.02941176  1
  Cu  Cu2951  1  0.25210084  0.83333333  0.02941176  1
  Cu  Cu2952  1  0.39495798  0.00000000  0.02941176  1
  Cu  Cu2953  1  0.39495798  0.16666667  0.02941176  1
  Cu  Cu2954  1  0.39495798  0.33333333  0.02941176  1
  Cu  Cu2955  1  0.39495798  0.50000000  0.02941176  1
  Cu  Cu2956  1  0.39495798  0.66666667  0.02941176  1
  Cu  Cu2957  1  0.39495798  0.83333333  0.02941176  1
  Cu  Cu2958  1  0.53781513  0.00000000  0.02941176  1
  Cu  Cu2959  1  0.53781513  0.16666667  0.02941176  1
  Cu  Cu2960  1  0.53781513  0.33333333  0.02941176  1
  Cu  Cu2961  1  0.53781513  0.50000000  0.02941176  1
  Cu  Cu2962  1  0.53781513  0.66666667  0.02941176  1
  Cu  Cu2963  1  0.53781513  0.83333333  0.02941176  1
  Cu  Cu2964  1  0.68067227  0.00000000  0.02941176  1
  Cu  Cu2965  1  0.68067227  0.16666667  0.02941176  1
  Cu  Cu2966  1  0.68067227  0.33333333  0.02941176  1
  Cu  Cu2967  1  0.68067227  0.50000000  0.02941176  1
  Cu  Cu2968  1  0.68067227  0.66666667  0.02941176  1
  Cu  Cu2969  1  0.68067227  0.83333333  0.02941176  1
  Cu  Cu2970  1  0.82352941  0.00000000  0.02941176  1
  Cu  Cu2971  1  0.82352941  0.16666667  0.02941176  1
  Cu  Cu2972  1  0.82352941  0.33333333  0.02941176  1
  Cu  Cu2973  1  0.82352941  0.50000000  0.02941176  1
  Cu  Cu2974  1  0.82352941  0.66666667  0.02941176  1
  Cu  Cu2975  1  0.82352941  0.83333333  0.02941176  1
  Cu  Cu2976  1  0.96638655  0.00000000  0.02941176  1
  Cu  Cu2977  1  0.96638655  0.16666667  0.02941176  1
  Cu  Cu2978  1  0.96638655  0.33333333  0.02941176  1
  Cu  Cu2979  1  0.96638655  0.50000000  0.02941176  1
  Cu  Cu2980  1  0.96638655  0.66666667  0.02941176  1
  Cu  Cu2981  1  0.96638655  0.83333333  0.02941176  1
  Cu  Cu2982  1  0.10924370  0.00000000  0.52941176  1
  Cu  Cu2983  1  0.10924370  0.16666667  0.52941176  1
  Cu  Cu2984  1  0.10924370  0.33333333  0.52941176  1
  Cu  Cu2985  1  0.10924370  0.50000000  0.52941176  1
  Cu  Cu2986  1  0.10924370  0.66666667  0.52941176  1
  Cu  Cu2987  1  0.10924370  0.83333333  0.52941176  1
  Cu  Cu2988  1  0.25210084  0.00000000  0.52941176  1
  Cu  Cu2989  1  0.25210084  0.16666667  0.52941176  1
  Cu  Cu2990  1  0.25210084  0.33333333  0.52941176  1
  Cu  Cu2991  1  0.25210084  0.50000000  0.52941176  1
  Cu  Cu2992  1  0.25210084  0.66666667  0.52941176  1
  Cu  Cu2993  1  0.25210084  0.83333333  0.52941176  1
  Cu  Cu2994  1  0.39495798  0.00000000  0.52941176  1
  Cu  Cu2995  1  0.39495798  0.16666667  0.52941176  1
  Cu  Cu2996  1  0.39495798  0.33333333  0.52941176  1
  Cu  Cu2997  1  0.39495798  0.50000000  0.52941176  1
  Cu  Cu2998  1  0.39495798  0.66666667  0.52941176  1
  Cu  Cu2999  1  0.39495798  0.83333333  0.52941176  1
  Cu  Cu3000  1  0.53781513  0.00000000  0.52941176  1
  Cu  Cu3001  1  0.53781513  0.16666667  0.52941176  1
  Cu  Cu3002  1  0.53781513  0.33333333  0.52941176  1
  Cu  Cu3003  1  0.53781513  0.50000000  0.52941176  1
  Cu  Cu3004  1  0.53781513  0.66666667  0.52941176  1
  Cu  Cu3005  1  0.53781513  0.83333333  0.52941176  1
  Cu  Cu3006  1  0.68067227  0.00000000  0.52941176  1
  Cu  Cu3007  1  0.68067227  0.16666667  0.52941176  1
  Cu  Cu3008  1  0.68067227  0.33333333  0.52941176  1
  Cu  Cu3009  1  0.68067227  0.50000000  0.52941176  1
  Cu  Cu3010  1  0.68067227  0.66666667  0.52941176  1
  Cu  Cu3011  1  0.68067227  0.83333333  0.52941176  1
  Cu  Cu3012  1  0.82352941  0.00000000  0.52941176  1
  Cu  Cu3013  1  0.82352941  0.16666667  0.52941176  1
  Cu  Cu3014  1  0.82352941  0.33333333  0.52941176  1
  Cu  Cu3015  1  0.82352941  0.50000000  0.52941176  1
  Cu  Cu3016  1  0.82352941  0.66666667  0.52941176  1
  Cu  Cu3017  1  0.82352941  0.83333333  0.52941176  1
  Cu  Cu3018  1  0.96638655  0.00000000  0.52941176  1
  Cu  Cu3019  1  0.96638655  0.16666667  0.52941176  1
  Cu  Cu3020  1  0.96638655  0.33333333  0.52941176  1
  Cu  Cu3021  1  0.96638655  0.50000000  0.52941176  1
  Cu  Cu3022  1  0.96638655  0.66666667  0.52941176  1
  Cu  Cu3023  1  0.96638655  0.83333333  0.52941176  1
  Cu  Cu3024  1  0.01680672  0.08333333  0.48529412  1
  Cu  Cu3025  1  0.01680672  0.25000000  0.48529412  1
  Cu  Cu3026  1  0.01680672  0.41666667  0.48529412  1
  Cu  Cu3027  1  0.01680672  0.58333333  0.48529412  1
  Cu  Cu3028  1  0.01680672  0.75000000  0.48529412  1
  Cu  Cu3029  1  0.01680672  0.91666667  0.48529412  1
  Cu  Cu3030  1  0.15966387  0.08333333  0.48529412  1
  Cu  Cu3031  1  0.15966387  0.25000000  0.48529412  1
  Cu  Cu3032  1  0.15966387  0.41666667  0.48529412  1
  Cu  Cu3033  1  0.15966387  0.58333333  0.48529412  1
  Cu  Cu3034  1  0.15966387  0.75000000  0.48529412  1
  Cu  Cu3035  1  0.15966387  0.91666667  0.48529412  1
  Cu  Cu3036  1  0.30252101  0.08333333  0.48529412  1
  Cu  Cu3037  1  0.30252101  0.25000000  0.48529412  1
  Cu  Cu3038  1  0.30252101  0.41666667  0.48529412  1
  Cu  Cu3039  1  0.30252101  0.58333333  0.48529412  1
  Cu  Cu3040  1  0.30252101  0.75000000  0.48529412  1
  Cu  Cu3041  1  0.30252101  0.91666667  0.48529412  1
  Cu  Cu3042  1  0.44537815  0.08333333  0.48529412  1
  Cu  Cu3043  1  0.44537815  0.25000000  0.48529412  1
  Cu  Cu3044  1  0.44537815  0.41666667  0.48529412  1
  Cu  Cu3045  1  0.44537815  0.58333333  0.48529412  1
  Cu  Cu3046  1  0.44537815  0.75000000  0.48529412  1
  Cu  Cu3047  1  0.44537815  0.91666667  0.48529412  1
  Cu  Cu3048  1  0.58823529  0.08333333  0.48529412  1
  Cu  Cu3049  1  0.58823529  0.25000000  0.48529412  1
  Cu  Cu3050  1  0.58823529  0.41666667  0.48529412  1
  Cu  Cu3051  1  0.58823529  0.58333333  0.48529412  1
  Cu  Cu3052  1  0.58823529  0.75000000  0.48529412  1
  Cu  Cu3053  1  0.58823529  0.91666667  0.48529412  1
  Cu  Cu3054  1  0.73109244  0.08333333  0.48529412  1
  Cu  Cu3055  1  0.73109244  0.25000000  0.48529412  1
  Cu  Cu3056  1  0.73109244  0.41666667  0.48529412  1
  Cu  Cu3057  1  0.73109244  0.58333333  0.48529412  1
  Cu  Cu3058  1  0.73109244  0.75000000  0.48529412  1
  Cu  Cu3059  1  0.73109244  0.91666667  0.48529412  1
  Cu  Cu3060  1  0.87394958  0.08333333  0.48529412  1
  Cu  Cu3061  1  0.87394958  0.25000000  0.48529412  1
  Cu  Cu3062  1  0.87394958  0.41666667  0.48529412  1
  Cu  Cu3063  1  0.87394958  0.58333333  0.48529412  1
  Cu  Cu3064  1  0.87394958  0.75000000  0.48529412  1
  Cu  Cu3065  1  0.87394958  0.91666667  0.48529412  1
  Cu  Cu3066  1  0.01680672  0.08333333  0.98529412  1
  Cu  Cu3067  1  0.01680672  0.25000000  0.98529412  1
  Cu  Cu3068  1  0.01680672  0.41666667  0.98529412  1
  Cu  Cu3069  1  0.01680672  0.58333333  0.98529412  1
  Cu  Cu3070  1  0.01680672  0.75000000  0.98529412  1
  Cu  Cu3071  1  0.01680672  0.91666667  0.98529412  1
  Cu  Cu3072  1  0.15966387  0.08333333  0.98529412  1
  Cu  Cu3073  1  0.15966387  0.25000000  0.98529412  1
  Cu  Cu3074  1  0.15966387  0.41666667  0.98529412  1
  Cu  Cu3075  1  0.15966387  0.58333333  0.98529412  1
  Cu  Cu3076  1  0.15966387  0.75000000  0.98529412  1
  Cu  Cu3077  1  0.15966387  0.91666667  0.98529412  1
  Cu  Cu3078  1  0.30252101  0.08333333  0.98529412  1
  Cu  Cu3079  1  0.30252101  0.25000000  0.98529412  1
  Cu  Cu3080  1  0.30252101  0.41666667  0.98529412  1
  Cu  Cu3081  1  0.30252101  0.58333333  0.98529412  1
  Cu  Cu3082  1  0.30252101  0.75000000  0.98529412  1
  Cu  Cu3083  1  0.30252101  0.91666667  0.98529412  1
  Cu  Cu3084  1  0.44537815  0.08333333  0.98529412  1
  Cu  Cu3085  1  0.44537815  0.25000000  0.98529412  1
  Cu  Cu3086  1  0.44537815  0.41666667  0.98529412  1
  Cu  Cu3087  1  0.44537815  0.58333333  0.98529412  1
  Cu  Cu3088  1  0.44537815  0.75000000  0.98529412  1
  Cu  Cu3089  1  0.44537815  0.91666667  0.98529412  1
  Cu  Cu3090  1  0.58823529  0.08333333  0.98529412  1
  Cu  Cu3091  1  0.58823529  0.25000000  0.98529412  1
  Cu  Cu3092  1  0.58823529  0.41666667  0.98529412  1
  Cu  Cu3093  1  0.58823529  0.58333333  0.98529412  1
  Cu  Cu3094  1  0.58823529  0.75000000  0.98529412  1
  Cu  Cu3095  1  0.58823529  0.91666667  0.98529412  1
  Cu  Cu3096  1  0.73109244  0.08333333  0.98529412  1
  Cu  Cu3097  1  0.73109244  0.25000000  0.98529412  1
  Cu  Cu3098  1  0.73109244  0.41666667  0.98529412  1
  Cu  Cu3099  1  0.73109244  0.58333333  0.98529412  1
  Cu  Cu3100  1  0.73109244  0.75000000  0.98529412  1
  Cu  Cu3101  1  0.73109244  0.91666667  0.98529412  1
  Cu  Cu3102  1  0.87394958  0.08333333  0.98529412  1
  Cu  Cu3103  1  0.87394958  0.25000000  0.98529412  1
  Cu  Cu3104  1  0.87394958  0.41666667  0.98529412  1
  Cu  Cu3105  1  0.87394958  0.58333333  0.98529412  1
  Cu  Cu3106  1  0.87394958  0.75000000  0.98529412  1
  Cu  Cu3107  1  0.87394958  0.91666667  0.98529412  1
  Cu  Cu3108  1  0.02941176  0.08333333  0.41176471  1
  Cu  Cu3109  1  0.02941176  0.25000000  0.41176471  1
  Cu  Cu3110  1  0.02941176  0.41666667  0.41176471  1
  Cu  Cu3111  1  0.02941176  0.58333333  0.41176471  1
  Cu  Cu3112  1  0.02941176  0.75000000  0.41176471  1
  Cu  Cu3113  1  0.02941176  0.91666667  0.41176471  1
  Cu  Cu3114  1  0.17226891  0.08333333  0.41176471  1
  Cu  Cu3115  1  0.17226891  0.25000000  0.41176471  1
  Cu  Cu3116  1  0.17226891  0.41666667  0.41176471  1
  Cu  Cu3117  1  0.17226891  0.58333333  0.41176471  1
  Cu  Cu3118  1  0.17226891  0.75000000  0.41176471  1
  Cu  Cu3119  1  0.17226891  0.91666667  0.41176471  1
  Cu  Cu3120  1  0.31512605  0.08333333  0.41176471  1
  Cu  Cu3121  1  0.31512605  0.25000000  0.41176471  1
  Cu  Cu3122  1  0.31512605  0.41666667  0.41176471  1
  Cu  Cu3123  1  0.31512605  0.58333333  0.41176471  1
  Cu  Cu3124  1  0.31512605  0.75000000  0.41176471  1
  Cu  Cu3125  1  0.31512605  0.91666667  0.41176471  1
  Cu  Cu3126  1  0.45798319  0.08333333  0.41176471  1
  Cu  Cu3127  1  0.45798319  0.25000000  0.41176471  1
  Cu  Cu3128  1  0.45798319  0.41666667  0.41176471  1
  Cu  Cu3129  1  0.45798319  0.58333333  0.41176471  1
  Cu  Cu3130  1  0.45798319  0.75000000  0.41176471  1
  Cu  Cu3131  1  0.45798319  0.91666667  0.41176471  1
  Cu  Cu3132  1  0.60084034  0.08333333  0.41176471  1
  Cu  Cu3133  1  0.60084034  0.25000000  0.41176471  1
  Cu  Cu3134  1  0.60084034  0.41666667  0.41176471  1
  Cu  Cu3135  1  0.60084034  0.58333333  0.41176471  1
  Cu  Cu3136  1  0.60084034  0.75000000  0.41176471  1
  Cu  Cu3137  1  0.60084034  0.91666667  0.41176471  1
  Cu  Cu3138  1  0.74369748  0.08333333  0.41176471  1
  Cu  Cu3139  1  0.74369748  0.25000000  0.41176471  1
  Cu  Cu3140  1  0.74369748  0.41666667  0.41176471  1
  Cu  Cu3141  1  0.74369748  0.58333333  0.41176471  1
  Cu  Cu3142  1  0.74369748  0.75000000  0.41176471  1
  Cu  Cu3143  1  0.74369748  0.91666667  0.41176471  1
  Cu  Cu3144  1  0.88655462  0.08333333  0.41176471  1
  Cu  Cu3145  1  0.88655462  0.25000000  0.41176471  1
  Cu  Cu3146  1  0.88655462  0.41666667  0.41176471  1
  Cu  Cu3147  1  0.88655462  0.58333333  0.41176471  1
  Cu  Cu3148  1  0.88655462  0.75000000  0.41176471  1
  Cu  Cu3149  1  0.88655462  0.91666667  0.41176471  1
  Cu  Cu3150  1  0.02941176  0.08333333  0.91176471  1
  Cu  Cu3151  1  0.02941176  0.25000000  0.91176471  1
  Cu  Cu3152  1  0.02941176  0.41666667  0.91176471  1
  Cu  Cu3153  1  0.02941176  0.58333333  0.91176471  1
  Cu  Cu3154  1  0.02941176  0.75000000  0.91176471  1
  Cu  Cu3155  1  0.02941176  0.91666667  0.91176471  1
  Cu  Cu3156  1  0.17226891  0.08333333  0.91176471  1
  Cu  Cu3157  1  0.17226891  0.25000000  0.91176471  1
  Cu  Cu3158  1  0.17226891  0.41666667  0.91176471  1
  Cu  Cu3159  1  0.17226891  0.58333333  0.91176471  1
  Cu  Cu3160  1  0.17226891  0.75000000  0.91176471  1
  Cu  Cu3161  1  0.17226891  0.91666667  0.91176471  1
  Cu  Cu3162  1  0.31512605  0.08333333  0.91176471  1
  Cu  Cu3163  1  0.31512605  0.25000000  0.91176471  1
  Cu  Cu3164  1  0.31512605  0.41666667  0.91176471  1
  Cu  Cu3165  1  0.31512605  0.58333333  0.91176471  1
  Cu  Cu3166  1  0.31512605  0.75000000  0.91176471  1
  Cu  Cu3167  1  0.31512605  0.91666667  0.91176471  1
  Cu  Cu3168  1  0.45798319  0.08333333  0.91176471  1
  Cu  Cu3169  1  0.45798319  0.25000000  0.91176471  1
  Cu  Cu3170  1  0.45798319  0.41666667  0.91176471  1
  Cu  Cu3171  1  0.45798319  0.58333333  0.91176471  1
  Cu  Cu3172  1  0.45798319  0.75000000  0.91176471  1
  Cu  Cu3173  1  0.45798319  0.91666667  0.91176471  1
  Cu  Cu3174  1  0.60084034  0.08333333  0.91176471  1
  Cu  Cu3175  1  0.60084034  0.25000000  0.91176471  1
  Cu  Cu3176  1  0.60084034  0.41666667  0.91176471  1
  Cu  Cu3177  1  0.60084034  0.58333333  0.91176471  1
  Cu  Cu3178  1  0.60084034  0.75000000  0.91176471  1
  Cu  Cu3179  1  0.60084034  0.91666667  0.91176471  1
  Cu  Cu3180  1  0.74369748  0.08333333  0.91176471  1
  Cu  Cu3181  1  0.74369748  0.25000000  0.91176471  1
  Cu  Cu3182  1  0.74369748  0.41666667  0.91176471  1
  Cu  Cu3183  1  0.74369748  0.58333333  0.91176471  1
  Cu  Cu3184  1  0.74369748  0.75000000  0.91176471  1
  Cu  Cu3185  1  0.74369748  0.91666667  0.91176471  1
  Cu  Cu3186  1  0.88655462  0.08333333  0.91176471  1
  Cu  Cu3187  1  0.88655462  0.25000000  0.91176471  1
  Cu  Cu3188  1  0.88655462  0.41666667  0.91176471  1
  Cu  Cu3189  1  0.88655462  0.58333333  0.91176471  1
  Cu  Cu3190  1  0.88655462  0.75000000  0.91176471  1
  Cu  Cu3191  1  0.88655462  0.91666667  0.91176471  1
  Cu  Cu3192  1  0.01260504  0.00000000  0.42647059  1
  Cu  Cu3193  1  0.01260504  0.16666667  0.42647059  1
  Cu  Cu3194  1  0.01260504  0.33333333  0.42647059  1
  Cu  Cu3195  1  0.01260504  0.50000000  0.42647059  1
  Cu  Cu3196  1  0.01260504  0.66666667  0.42647059  1
  Cu  Cu3197  1  0.01260504  0.83333333  0.42647059  1
  Cu  Cu3198  1  0.15546218  0.00000000  0.42647059  1
  Cu  Cu3199  1  0.15546218  0.16666667  0.42647059  1
  Cu  Cu3200  1  0.15546218  0.33333333  0.42647059  1
  Cu  Cu3201  1  0.15546218  0.50000000  0.42647059  1
  Cu  Cu3202  1  0.15546218  0.66666667  0.42647059  1
  Cu  Cu3203  1  0.15546218  0.83333333  0.42647059  1
  Cu  Cu3204  1  0.29831933  0.00000000  0.42647059  1
  Cu  Cu3205  1  0.29831933  0.16666667  0.42647059  1
  Cu  Cu3206  1  0.29831933  0.33333333  0.42647059  1
  Cu  Cu3207  1  0.29831933  0.50000000  0.42647059  1
  Cu  Cu3208  1  0.29831933  0.66666667  0.42647059  1
  Cu  Cu3209  1  0.29831933  0.83333333  0.42647059  1
  Cu  Cu3210  1  0.44117647  0.00000000  0.42647059  1
  Cu  Cu3211  1  0.44117647  0.16666667  0.42647059  1
  Cu  Cu3212  1  0.44117647  0.33333333  0.42647059  1
  Cu  Cu3213  1  0.44117647  0.50000000  0.42647059  1
  Cu  Cu3214  1  0.44117647  0.66666667  0.42647059  1
  Cu  Cu3215  1  0.44117647  0.83333333  0.42647059  1
  Cu  Cu3216  1  0.58403361  0.00000000  0.42647059  1
  Cu  Cu3217  1  0.58403361  0.16666667  0.42647059  1
  Cu  Cu3218  1  0.58403361  0.33333333  0.42647059  1
  Cu  Cu3219  1  0.58403361  0.50000000  0.42647059  1
  Cu  Cu3220  1  0.58403361  0.66666667  0.42647059  1
  Cu  Cu3221  1  0.58403361  0.83333333  0.42647059  1
  Cu  Cu3222  1  0.72689076  0.00000000  0.42647059  1
  Cu  Cu3223  1  0.72689076  0.16666667  0.42647059  1
  Cu  Cu3224  1  0.72689076  0.33333333  0.42647059  1
  Cu  Cu3225  1  0.72689076  0.50000000  0.42647059  1
  Cu  Cu3226  1  0.72689076  0.66666667  0.42647059  1
  Cu  Cu3227  1  0.72689076  0.83333333  0.42647059  1
  Cu  Cu3228  1  0.86974790  0.00000000  0.42647059  1
  Cu  Cu3229  1  0.86974790  0.16666667  0.42647059  1
  Cu  Cu3230  1  0.86974790  0.33333333  0.42647059  1
  Cu  Cu3231  1  0.86974790  0.50000000  0.42647059  1
  Cu  Cu3232  1  0.86974790  0.66666667  0.42647059  1
  Cu  Cu3233  1  0.86974790  0.83333333  0.42647059  1
  Cu  Cu3234  1  0.01260504  0.00000000  0.92647059  1
  Cu  Cu3235  1  0.01260504  0.16666667  0.92647059  1
  Cu  Cu3236  1  0.01260504  0.33333333  0.92647059  1
  Cu  Cu3237  1  0.01260504  0.50000000  0.92647059  1
  Cu  Cu3238  1  0.01260504  0.66666667  0.92647059  1
  Cu  Cu3239  1  0.01260504  0.83333333  0.92647059  1
  Cu  Cu3240  1  0.15546218  0.00000000  0.92647059  1
  Cu  Cu3241  1  0.15546218  0.16666667  0.92647059  1
  Cu  Cu3242  1  0.15546218  0.33333333  0.92647059  1
  Cu  Cu3243  1  0.15546218  0.50000000  0.92647059  1
  Cu  Cu3244  1  0.15546218  0.66666667  0.92647059  1
  Cu  Cu3245  1  0.15546218  0.83333333  0.92647059  1
  Cu  Cu3246  1  0.29831933  0.00000000  0.92647059  1
  Cu  Cu3247  1  0.29831933  0.16666667  0.92647059  1
  Cu  Cu3248  1  0.29831933  0.33333333  0.92647059  1
  Cu  Cu3249  1  0.29831933  0.50000000  0.92647059  1
  Cu  Cu3250  1  0.29831933  0.66666667  0.92647059  1
  Cu  Cu3251  1  0.29831933  0.83333333  0.92647059  1
  Cu  Cu3252  1  0.44117647  0.00000000  0.92647059  1
  Cu  Cu3253  1  0.44117647  0.16666667  0.92647059  1
  Cu  Cu3254  1  0.44117647  0.33333333  0.92647059  1
  Cu  Cu3255  1  0.44117647  0.50000000  0.92647059  1
  Cu  Cu3256  1  0.44117647  0.66666667  0.92647059  1
  Cu  Cu3257  1  0.44117647  0.83333333  0.92647059  1
  Cu  Cu3258  1  0.58403361  0.00000000  0.92647059  1
  Cu  Cu3259  1  0.58403361  0.16666667  0.92647059  1
  Cu  Cu3260  1  0.58403361  0.33333333  0.92647059  1
  Cu  Cu3261  1  0.58403361  0.50000000  0.92647059  1
  Cu  Cu3262  1  0.58403361  0.66666667  0.92647059  1
  Cu  Cu3263  1  0.58403361  0.83333333  0.92647059  1
  Cu  Cu3264  1  0.72689076  0.00000000  0.92647059  1
  Cu  Cu3265  1  0.72689076  0.16666667  0.92647059  1
  Cu  Cu3266  1  0.72689076  0.33333333  0.92647059  1
  Cu  Cu3267  1  0.72689076  0.50000000  0.92647059  1
  Cu  Cu3268  1  0.72689076  0.66666667  0.92647059  1
  Cu  Cu3269  1  0.72689076  0.83333333  0.92647059  1
  Cu  Cu3270  1  0.86974790  0.00000000  0.92647059  1
  Cu  Cu3271  1  0.86974790  0.16666667  0.92647059  1
  Cu  Cu3272  1  0.86974790  0.33333333  0.92647059  1
  Cu  Cu3273  1  0.86974790  0.50000000  0.92647059  1
  Cu  Cu3274  1  0.86974790  0.66666667  0.92647059  1
  Cu  Cu3275  1  0.86974790  0.83333333  0.92647059  1
  Cu  Cu3276  1  0.04201681  0.08333333  0.33823529  1
  Cu  Cu3277  1  0.04201681  0.25000000  0.33823529  1
  Cu  Cu3278  1  0.04201681  0.41666667  0.33823529  1
  Cu  Cu3279  1  0.04201681  0.58333333  0.33823529  1
  Cu  Cu3280  1  0.04201681  0.75000000  0.33823529  1
  Cu  Cu3281  1  0.04201681  0.91666667  0.33823529  1
  Cu  Cu3282  1  0.18487395  0.08333333  0.33823529  1
  Cu  Cu3283  1  0.18487395  0.25000000  0.33823529  1
  Cu  Cu3284  1  0.18487395  0.41666667  0.33823529  1
  Cu  Cu3285  1  0.18487395  0.58333333  0.33823529  1
  Cu  Cu3286  1  0.18487395  0.75000000  0.33823529  1
  Cu  Cu3287  1  0.18487395  0.91666667  0.33823529  1
  Cu  Cu3288  1  0.32773109  0.08333333  0.33823529  1
  Cu  Cu3289  1  0.32773109  0.25000000  0.33823529  1
  Cu  Cu3290  1  0.32773109  0.41666667  0.33823529  1
  Cu  Cu3291  1  0.32773109  0.58333333  0.33823529  1
  Cu  Cu3292  1  0.32773109  0.75000000  0.33823529  1
  Cu  Cu3293  1  0.32773109  0.91666667  0.33823529  1
  Cu  Cu3294  1  0.47058824  0.08333333  0.33823529  1
  Cu  Cu3295  1  0.47058824  0.25000000  0.33823529  1
  Cu  Cu3296  1  0.47058824  0.41666667  0.33823529  1
  Cu  Cu3297  1  0.47058824  0.58333333  0.33823529  1
  Cu  Cu3298  1  0.47058824  0.75000000  0.33823529  1
  Cu  Cu3299  1  0.47058824  0.91666667  0.33823529  1
  Cu  Cu3300  1  0.61344538  0.08333333  0.33823529  1
  Cu  Cu3301  1  0.61344538  0.25000000  0.33823529  1
  Cu  Cu3302  1  0.61344538  0.41666667  0.33823529  1
  Cu  Cu3303  1  0.61344538  0.58333333  0.33823529  1
  Cu  Cu3304  1  0.61344538  0.75000000  0.33823529  1
  Cu  Cu3305  1  0.61344538  0.91666667  0.33823529  1
  Cu  Cu3306  1  0.75630252  0.08333333  0.33823529  1
  Cu  Cu3307  1  0.75630252  0.25000000  0.33823529  1
  Cu  Cu3308  1  0.75630252  0.41666667  0.33823529  1
  Cu  Cu3309  1  0.75630252  0.58333333  0.33823529  1
  Cu  Cu3310  1  0.75630252  0.75000000  0.33823529  1
  Cu  Cu3311  1  0.75630252  0.91666667  0.33823529  1
  Cu  Cu3312  1  0.89915966  0.08333333  0.33823529  1
  Cu  Cu3313  1  0.89915966  0.25000000  0.33823529  1
  Cu  Cu3314  1  0.89915966  0.41666667  0.33823529  1
  Cu  Cu3315  1  0.89915966  0.58333333  0.33823529  1
  Cu  Cu3316  1  0.89915966  0.75000000  0.33823529  1
  Cu  Cu3317  1  0.89915966  0.91666667  0.33823529  1
  Cu  Cu3318  1  0.04201681  0.08333333  0.83823529  1
  Cu  Cu3319  1  0.04201681  0.25000000  0.83823529  1
  Cu  Cu3320  1  0.04201681  0.41666667  0.83823529  1
  Cu  Cu3321  1  0.04201681  0.58333333  0.83823529  1
  Cu  Cu3322  1  0.04201681  0.75000000  0.83823529  1
  Cu  Cu3323  1  0.04201681  0.91666667  0.83823529  1
  Cu  Cu3324  1  0.18487395  0.08333333  0.83823529  1
  Cu  Cu3325  1  0.18487395  0.25000000  0.83823529  1
  Cu  Cu3326  1  0.18487395  0.41666667  0.83823529  1
  Cu  Cu3327  1  0.18487395  0.58333333  0.83823529  1
  Cu  Cu3328  1  0.18487395  0.75000000  0.83823529  1
  Cu  Cu3329  1  0.18487395  0.91666667  0.83823529  1
  Cu  Cu3330  1  0.32773109  0.08333333  0.83823529  1
  Cu  Cu3331  1  0.32773109  0.25000000  0.83823529  1
  Cu  Cu3332  1  0.32773109  0.41666667  0.83823529  1
  Cu  Cu3333  1  0.32773109  0.58333333  0.83823529  1
  Cu  Cu3334  1  0.32773109  0.75000000  0.83823529  1
  Cu  Cu3335  1  0.32773109  0.91666667  0.83823529  1
  Cu  Cu3336  1  0.47058824  0.08333333  0.83823529  1
  Cu  Cu3337  1  0.47058824  0.25000000  0.83823529  1
  Cu  Cu3338  1  0.47058824  0.41666667  0.83823529  1
  Cu  Cu3339  1  0.47058824  0.58333333  0.83823529  1
  Cu  Cu3340  1  0.47058824  0.75000000  0.83823529  1
  Cu  Cu3341  1  0.47058824  0.91666667  0.83823529  1
  Cu  Cu3342  1  0.61344538  0.08333333  0.83823529  1
  Cu  Cu3343  1  0.61344538  0.25000000  0.83823529  1
  Cu  Cu3344  1  0.61344538  0.41666667  0.83823529  1
  Cu  Cu3345  1  0.61344538  0.58333333  0.83823529  1
  Cu  Cu3346  1  0.61344538  0.75000000  0.83823529  1
  Cu  Cu3347  1  0.61344538  0.91666667  0.83823529  1
  Cu  Cu3348  1  0.75630252  0.08333333  0.83823529  1
  Cu  Cu3349  1  0.75630252  0.25000000  0.83823529  1
  Cu  Cu3350  1  0.75630252  0.41666667  0.83823529  1
  Cu  Cu3351  1  0.75630252  0.58333333  0.83823529  1
  Cu  Cu3352  1  0.75630252  0.75000000  0.83823529  1
  Cu  Cu3353  1  0.75630252  0.91666667  0.83823529  1
  Cu  Cu3354  1  0.89915966  0.08333333  0.83823529  1
  Cu  Cu3355  1  0.89915966  0.25000000  0.83823529  1
  Cu  Cu3356  1  0.89915966  0.41666667  0.83823529  1
  Cu  Cu3357  1  0.89915966  0.58333333  0.83823529  1
  Cu  Cu3358  1  0.89915966  0.75000000  0.83823529  1
  Cu  Cu3359  1  0.89915966  0.91666667  0.83823529  1
  Cu  Cu3360  1  0.02521008  0.00000000  0.35294118  1
  Cu  Cu3361  1  0.02521008  0.16666667  0.35294118  1
  Cu  Cu3362  1  0.02521008  0.33333333  0.35294118  1
  Cu  Cu3363  1  0.02521008  0.50000000  0.35294118  1
  Cu  Cu3364  1  0.02521008  0.66666667  0.35294118  1
  Cu  Cu3365  1  0.02521008  0.83333333  0.35294118  1
  Cu  Cu3366  1  0.16806723  0.00000000  0.35294118  1
  Cu  Cu3367  1  0.16806723  0.16666667  0.35294118  1
  Cu  Cu3368  1  0.16806723  0.33333333  0.35294118  1
  Cu  Cu3369  1  0.16806723  0.50000000  0.35294118  1
  Cu  Cu3370  1  0.16806723  0.66666667  0.35294118  1
  Cu  Cu3371  1  0.16806723  0.83333333  0.35294118  1
  Cu  Cu3372  1  0.31092437  0.00000000  0.35294118  1
  Cu  Cu3373  1  0.31092437  0.16666667  0.35294118  1
  Cu  Cu3374  1  0.31092437  0.33333333  0.35294118  1
  Cu  Cu3375  1  0.31092437  0.50000000  0.35294118  1
  Cu  Cu3376  1  0.31092437  0.66666667  0.35294118  1
  Cu  Cu3377  1  0.31092437  0.83333333  0.35294118  1
  Cu  Cu3378  1  0.45378151  0.00000000  0.35294118  1
  Cu  Cu3379  1  0.45378151  0.16666667  0.35294118  1
  Cu  Cu3380  1  0.45378151  0.33333333  0.35294118  1
  Cu  Cu3381  1  0.45378151  0.50000000  0.35294118  1
  Cu  Cu3382  1  0.45378151  0.66666667  0.35294118  1
  Cu  Cu3383  1  0.45378151  0.83333333  0.35294118  1
  Cu  Cu3384  1  0.59663866  0.00000000  0.35294118  1
  Cu  Cu3385  1  0.59663866  0.16666667  0.35294118  1
  Cu  Cu3386  1  0.59663866  0.33333333  0.35294118  1
  Cu  Cu3387  1  0.59663866  0.50000000  0.35294118  1
  Cu  Cu3388  1  0.59663866  0.66666667  0.35294118  1
  Cu  Cu3389  1  0.59663866  0.83333333  0.35294118  1
  Cu  Cu3390  1  0.73949580  0.00000000  0.35294118  1
  Cu  Cu3391  1  0.73949580  0.16666667  0.35294118  1
  Cu  Cu3392  1  0.73949580  0.33333333  0.35294118  1
  Cu  Cu3393  1  0.73949580  0.50000000  0.35294118  1
  Cu  Cu3394  1  0.73949580  0.66666667  0.35294118  1
  Cu  Cu3395  1  0.73949580  0.83333333  0.35294118  1
  Cu  Cu3396  1  0.88235294  0.00000000  0.35294118  1
  Cu  Cu3397  1  0.88235294  0.16666667  0.35294118  1
  Cu  Cu3398  1  0.88235294  0.33333333  0.35294118  1
  Cu  Cu3399  1  0.88235294  0.50000000  0.35294118  1
  Cu  Cu3400  1  0.88235294  0.66666667  0.35294118  1
  Cu  Cu3401  1  0.88235294  0.83333333  0.35294118  1
  Cu  Cu3402  1  0.02521008  0.00000000  0.85294118  1
  Cu  Cu3403  1  0.02521008  0.16666667  0.85294118  1
  Cu  Cu3404  1  0.02521008  0.33333333  0.85294118  1
  Cu  Cu3405  1  0.02521008  0.50000000  0.85294118  1
  Cu  Cu3406  1  0.02521008  0.66666667  0.85294118  1
  Cu  Cu3407  1  0.02521008  0.83333333  0.85294118  1
  Cu  Cu3408  1  0.16806723  0.00000000  0.85294118  1
  Cu  Cu3409  1  0.16806723  0.16666667  0.85294118  1
  Cu  Cu3410  1  0.16806723  0.33333333  0.85294118  1
  Cu  Cu3411  1  0.16806723  0.50000000  0.85294118  1
  Cu  Cu3412  1  0.16806723  0.66666667  0.85294118  1
  Cu  Cu3413  1  0.16806723  0.83333333  0.85294118  1
  Cu  Cu3414  1  0.31092437  0.00000000  0.85294118  1
  Cu  Cu3415  1  0.31092437  0.16666667  0.85294118  1
  Cu  Cu3416  1  0.31092437  0.33333333  0.85294118  1
  Cu  Cu3417  1  0.31092437  0.50000000  0.85294118  1
  Cu  Cu3418  1  0.31092437  0.66666667  0.85294118  1
  Cu  Cu3419  1  0.31092437  0.83333333  0.85294118  1
  Cu  Cu3420  1  0.45378151  0.00000000  0.85294118  1
  Cu  Cu3421  1  0.45378151  0.16666667  0.85294118  1
  Cu  Cu3422  1  0.45378151  0.33333333  0.85294118  1
  Cu  Cu3423  1  0.45378151  0.50000000  0.85294118  1
  Cu  Cu3424  1  0.45378151  0.66666667  0.85294118  1
  Cu  Cu3425  1  0.45378151  0.83333333  0.85294118  1
  Cu  Cu3426  1  0.59663866  0.00000000  0.85294118  1
  Cu  Cu3427  1  0.59663866  0.16666667  0.85294118  1
  Cu  Cu3428  1  0.59663866  0.33333333  0.85294118  1
  Cu  Cu3429  1  0.59663866  0.50000000  0.85294118  1
  Cu  Cu3430  1  0.59663866  0.66666667  0.85294118  1
  Cu  Cu3431  1  0.59663866  0.83333333  0.85294118  1
  Cu  Cu3432  1  0.73949580  0.00000000  0.85294118  1
  Cu  Cu3433  1  0.73949580  0.16666667  0.85294118  1
  Cu  Cu3434  1  0.73949580  0.33333333  0.85294118  1
  Cu  Cu3435  1  0.73949580  0.50000000  0.85294118  1
  Cu  Cu3436  1  0.73949580  0.66666667  0.85294118  1
  Cu  Cu3437  1  0.73949580  0.83333333  0.85294118  1
  Cu  Cu3438  1  0.88235294  0.00000000  0.85294118  1
  Cu  Cu3439  1  0.88235294  0.16666667  0.85294118  1
  Cu  Cu3440  1  0.88235294  0.33333333  0.85294118  1
  Cu  Cu3441  1  0.88235294  0.50000000  0.85294118  1
  Cu  Cu3442  1  0.88235294  0.66666667  0.85294118  1
  Cu  Cu3443  1  0.88235294  0.83333333  0.85294118  1
  Cu  Cu3444  1  0.05462185  0.08333333  0.26470588  1
  Cu  Cu3445  1  0.05462185  0.25000000  0.26470588  1
  Cu  Cu3446  1  0.05462185  0.41666667  0.26470588  1
  Cu  Cu3447  1  0.05462185  0.58333333  0.26470588  1
  Cu  Cu3448  1  0.05462185  0.75000000  0.26470588  1
  Cu  Cu3449  1  0.05462185  0.91666667  0.26470588  1
  Cu  Cu3450  1  0.19747899  0.08333333  0.26470588  1
  Cu  Cu3451  1  0.19747899  0.25000000  0.26470588  1
  Cu  Cu3452  1  0.19747899  0.41666667  0.26470588  1
  Cu  Cu3453  1  0.19747899  0.58333333  0.26470588  1
  Cu  Cu3454  1  0.19747899  0.75000000  0.26470588  1
  Cu  Cu3455  1  0.19747899  0.91666667  0.26470588  1
  Cu  Cu3456  1  0.34033613  0.08333333  0.26470588  1
  Cu  Cu3457  1  0.34033613  0.25000000  0.26470588  1
  Cu  Cu3458  1  0.34033613  0.41666667  0.26470588  1
  Cu  Cu3459  1  0.34033613  0.58333333  0.26470588  1
  Cu  Cu3460  1  0.34033613  0.75000000  0.26470588  1
  Cu  Cu3461  1  0.34033613  0.91666667  0.26470588  1
  Cu  Cu3462  1  0.48319328  0.08333333  0.26470588  1
  Cu  Cu3463  1  0.48319328  0.25000000  0.26470588  1
  Cu  Cu3464  1  0.48319328  0.41666667  0.26470588  1
  Cu  Cu3465  1  0.48319328  0.58333333  0.26470588  1
  Cu  Cu3466  1  0.48319328  0.75000000  0.26470588  1
  Cu  Cu3467  1  0.48319328  0.91666667  0.26470588  1
  Cu  Cu3468  1  0.62605042  0.08333333  0.26470588  1
  Cu  Cu3469  1  0.62605042  0.25000000  0.26470588  1
  Cu  Cu3470  1  0.62605042  0.41666667  0.26470588  1
  Cu  Cu3471  1  0.62605042  0.58333333  0.26470588  1
  Cu  Cu3472  1  0.62605042  0.75000000  0.26470588  1
  Cu  Cu3473  1  0.62605042  0.91666667  0.26470588  1
  Cu  Cu3474  1  0.76890756  0.08333333  0.26470588  1
  Cu  Cu3475  1  0.76890756  0.25000000  0.26470588  1
  Cu  Cu3476  1  0.76890756  0.41666667  0.26470588  1
  Cu  Cu3477  1  0.76890756  0.58333333  0.26470588  1
  Cu  Cu3478  1  0.76890756  0.75000000  0.26470588  1
  Cu  Cu3479  1  0.76890756  0.91666667  0.26470588  1
  Cu  Cu3480  1  0.91176471  0.08333333  0.26470588  1
  Cu  Cu3481  1  0.91176471  0.25000000  0.26470588  1
  Cu  Cu3482  1  0.91176471  0.41666667  0.26470588  1
  Cu  Cu3483  1  0.91176471  0.58333333  0.26470588  1
  Cu  Cu3484  1  0.91176471  0.75000000  0.26470588  1
  Cu  Cu3485  1  0.91176471  0.91666667  0.26470588  1
  Cu  Cu3486  1  0.05462185  0.08333333  0.76470588  1
  Cu  Cu3487  1  0.05462185  0.25000000  0.76470588  1
  Cu  Cu3488  1  0.05462185  0.41666667  0.76470588  1
  Cu  Cu3489  1  0.05462185  0.58333333  0.76470588  1
  Cu  Cu3490  1  0.05462185  0.75000000  0.76470588  1
  Cu  Cu3491  1  0.05462185  0.91666667  0.76470588  1
  Cu  Cu3492  1  0.19747899  0.08333333  0.76470588  1
  Cu  Cu3493  1  0.19747899  0.25000000  0.76470588  1
  Cu  Cu3494  1  0.19747899  0.41666667  0.76470588  1
  Cu  Cu3495  1  0.19747899  0.58333333  0.76470588  1
  Cu  Cu3496  1  0.19747899  0.75000000  0.76470588  1
  Cu  Cu3497  1  0.19747899  0.91666667  0.76470588  1
  Cu  Cu3498  1  0.34033613  0.08333333  0.76470588  1
  Cu  Cu3499  1  0.34033613  0.25000000  0.76470588  1
  Cu  Cu3500  1  0.34033613  0.41666667  0.76470588  1
  Cu  Cu3501  1  0.34033613  0.58333333  0.76470588  1
  Cu  Cu3502  1  0.34033613  0.75000000  0.76470588  1
  Cu  Cu3503  1  0.34033613  0.91666667  0.76470588  1
  Cu  Cu3504  1  0.48319328  0.08333333  0.76470588  1
  Cu  Cu3505  1  0.48319328  0.25000000  0.76470588  1
  Cu  Cu3506  1  0.48319328  0.41666667  0.76470588  1
  Cu  Cu3507  1  0.48319328  0.58333333  0.76470588  1
  Cu  Cu3508  1  0.48319328  0.75000000  0.76470588  1
  Cu  Cu3509  1  0.48319328  0.91666667  0.76470588  1
  Cu  Cu3510  1  0.62605042  0.08333333  0.76470588  1
  Cu  Cu3511  1  0.62605042  0.25000000  0.76470588  1
  Cu  Cu3512  1  0.62605042  0.41666667  0.76470588  1
  Cu  Cu3513  1  0.62605042  0.58333333  0.76470588  1
  Cu  Cu3514  1  0.62605042  0.75000000  0.76470588  1
  Cu  Cu3515  1  0.62605042  0.91666667  0.76470588  1
  Cu  Cu3516  1  0.76890756  0.08333333  0.76470588  1
  Cu  Cu3517  1  0.76890756  0.25000000  0.76470588  1
  Cu  Cu3518  1  0.76890756  0.41666667  0.76470588  1
  Cu  Cu3519  1  0.76890756  0.58333333  0.76470588  1
  Cu  Cu3520  1  0.76890756  0.75000000  0.76470588  1
  Cu  Cu3521  1  0.76890756  0.91666667  0.76470588  1
  Cu  Cu3522  1  0.91176471  0.08333333  0.76470588  1
  Cu  Cu3523  1  0.91176471  0.25000000  0.76470588  1
  Cu  Cu3524  1  0.91176471  0.41666667  0.76470588  1
  Cu  Cu3525  1  0.91176471  0.58333333  0.76470588  1
  Cu  Cu3526  1  0.91176471  0.75000000  0.76470588  1
  Cu  Cu3527  1  0.91176471  0.91666667  0.76470588  1
  Cu  Cu3528  1  0.03781513  0.00000000  0.27941176  1
  Cu  Cu3529  1  0.03781513  0.16666667  0.27941176  1
  Cu  Cu3530  1  0.03781513  0.33333333  0.27941176  1
  Cu  Cu3531  1  0.03781513  0.50000000  0.27941176  1
  Cu  Cu3532  1  0.03781513  0.66666667  0.27941176  1
  Cu  Cu3533  1  0.03781513  0.83333333  0.27941176  1
  Cu  Cu3534  1  0.18067227  0.00000000  0.27941176  1
  Cu  Cu3535  1  0.18067227  0.16666667  0.27941176  1
  Cu  Cu3536  1  0.18067227  0.33333333  0.27941176  1
  Cu  Cu3537  1  0.18067227  0.50000000  0.27941176  1
  Cu  Cu3538  1  0.18067227  0.66666667  0.27941176  1
  Cu  Cu3539  1  0.18067227  0.83333333  0.27941176  1
  Cu  Cu3540  1  0.32352941  0.00000000  0.27941176  1
  Cu  Cu3541  1  0.32352941  0.16666667  0.27941176  1
  Cu  Cu3542  1  0.32352941  0.33333333  0.27941176  1
  Cu  Cu3543  1  0.32352941  0.50000000  0.27941176  1
  Cu  Cu3544  1  0.32352941  0.66666667  0.27941176  1
  Cu  Cu3545  1  0.32352941  0.83333333  0.27941176  1
  Cu  Cu3546  1  0.46638655  0.00000000  0.27941176  1
  Cu  Cu3547  1  0.46638655  0.16666667  0.27941176  1
  Cu  Cu3548  1  0.46638655  0.33333333  0.27941176  1
  Cu  Cu3549  1  0.46638655  0.50000000  0.27941176  1
  Cu  Cu3550  1  0.46638655  0.66666667  0.27941176  1
  Cu  Cu3551  1  0.46638655  0.83333333  0.27941176  1
  Cu  Cu3552  1  0.60924370  0.00000000  0.27941176  1
  Cu  Cu3553  1  0.60924370  0.16666667  0.27941176  1
  Cu  Cu3554  1  0.60924370  0.33333333  0.27941176  1
  Cu  Cu3555  1  0.60924370  0.50000000  0.27941176  1
  Cu  Cu3556  1  0.60924370  0.66666667  0.27941176  1
  Cu  Cu3557  1  0.60924370  0.83333333  0.27941176  1
  Cu  Cu3558  1  0.75210084  0.00000000  0.27941176  1
  Cu  Cu3559  1  0.75210084  0.16666667  0.27941176  1
  Cu  Cu3560  1  0.75210084  0.33333333  0.27941176  1
  Cu  Cu3561  1  0.75210084  0.50000000  0.27941176  1
  Cu  Cu3562  1  0.75210084  0.66666667  0.27941176  1
  Cu  Cu3563  1  0.75210084  0.83333333  0.27941176  1
  Cu  Cu3564  1  0.89495798  0.00000000  0.27941176  1
  Cu  Cu3565  1  0.89495798  0.16666667  0.27941176  1
  Cu  Cu3566  1  0.89495798  0.33333333  0.27941176  1
  Cu  Cu3567  1  0.89495798  0.50000000  0.27941176  1
  Cu  Cu3568  1  0.89495798  0.66666667  0.27941176  1
  Cu  Cu3569  1  0.89495798  0.83333333  0.27941176  1
  Cu  Cu3570  1  0.03781513  0.00000000  0.77941176  1
  Cu  Cu3571  1  0.03781513  0.16666667  0.77941176  1
  Cu  Cu3572  1  0.03781513  0.33333333  0.77941176  1
  Cu  Cu3573  1  0.03781513  0.50000000  0.77941176  1
  Cu  Cu3574  1  0.03781513  0.66666667  0.77941176  1
  Cu  Cu3575  1  0.03781513  0.83333333  0.77941176  1
  Cu  Cu3576  1  0.18067227  0.00000000  0.77941176  1
  Cu  Cu3577  1  0.18067227  0.16666667  0.77941176  1
  Cu  Cu3578  1  0.18067227  0.33333333  0.77941176  1
  Cu  Cu3579  1  0.18067227  0.50000000  0.77941176  1
  Cu  Cu3580  1  0.18067227  0.66666667  0.77941176  1
  Cu  Cu3581  1  0.18067227  0.83333333  0.77941176  1
  Cu  Cu3582  1  0.32352941  0.00000000  0.77941176  1
  Cu  Cu3583  1  0.32352941  0.16666667  0.77941176  1
  Cu  Cu3584  1  0.32352941  0.33333333  0.77941176  1
  Cu  Cu3585  1  0.32352941  0.50000000  0.77941176  1
  Cu  Cu3586  1  0.32352941  0.66666667  0.77941176  1
  Cu  Cu3587  1  0.32352941  0.83333333  0.77941176  1
  Cu  Cu3588  1  0.46638655  0.00000000  0.77941176  1
  Cu  Cu3589  1  0.46638655  0.16666667  0.77941176  1
  Cu  Cu3590  1  0.46638655  0.33333333  0.77941176  1
  Cu  Cu3591  1  0.46638655  0.50000000  0.77941176  1
  Cu  Cu3592  1  0.46638655  0.66666667  0.77941176  1
  Cu  Cu3593  1  0.46638655  0.83333333  0.77941176  1
  Cu  Cu3594  1  0.60924370  0.00000000  0.77941176  1
  Cu  Cu3595  1  0.60924370  0.16666667  0.77941176  1
  Cu  Cu3596  1  0.60924370  0.33333333  0.77941176  1
  Cu  Cu3597  1  0.60924370  0.50000000  0.77941176  1
  Cu  Cu3598  1  0.60924370  0.66666667  0.77941176  1
  Cu  Cu3599  1  0.60924370  0.83333333  0.77941176  1
  Cu  Cu3600  1  0.75210084  0.00000000  0.77941176  1
  Cu  Cu3601  1  0.75210084  0.16666667  0.77941176  1
  Cu  Cu3602  1  0.75210084  0.33333333  0.77941176  1
  Cu  Cu3603  1  0.75210084  0.50000000  0.77941176  1
  Cu  Cu3604  1  0.75210084  0.66666667  0.77941176  1
  Cu  Cu3605  1  0.75210084  0.83333333  0.77941176  1
  Cu  Cu3606  1  0.89495798  0.00000000  0.77941176  1
  Cu  Cu3607  1  0.89495798  0.16666667  0.77941176  1
  Cu  Cu3608  1  0.89495798  0.33333333  0.77941176  1
  Cu  Cu3609  1  0.89495798  0.50000000  0.77941176  1
  Cu  Cu3610  1  0.89495798  0.66666667  0.77941176  1
  Cu  Cu3611  1  0.89495798  0.83333333  0.77941176  1
  Cu  Cu3612  1  0.06722689  0.08333333  0.19117647  1
  Cu  Cu3613  1  0.06722689  0.25000000  0.19117647  1
  Cu  Cu3614  1  0.06722689  0.41666667  0.19117647  1
  Cu  Cu3615  1  0.06722689  0.58333333  0.19117647  1
  Cu  Cu3616  1  0.06722689  0.75000000  0.19117647  1
  Cu  Cu3617  1  0.06722689  0.91666667  0.19117647  1
  Cu  Cu3618  1  0.21008403  0.08333333  0.19117647  1
  Cu  Cu3619  1  0.21008403  0.25000000  0.19117647  1
  Cu  Cu3620  1  0.21008403  0.41666667  0.19117647  1
  Cu  Cu3621  1  0.21008403  0.58333333  0.19117647  1
  Cu  Cu3622  1  0.21008403  0.75000000  0.19117647  1
  Cu  Cu3623  1  0.21008403  0.91666667  0.19117647  1
  Cu  Cu3624  1  0.35294118  0.08333333  0.19117647  1
  Cu  Cu3625  1  0.35294118  0.25000000  0.19117647  1
  Cu  Cu3626  1  0.35294118  0.41666667  0.19117647  1
  Cu  Cu3627  1  0.35294118  0.58333333  0.19117647  1
  Cu  Cu3628  1  0.35294118  0.75000000  0.19117647  1
  Cu  Cu3629  1  0.35294118  0.91666667  0.19117647  1
  Cu  Cu3630  1  0.49579832  0.08333333  0.19117647  1
  Cu  Cu3631  1  0.49579832  0.25000000  0.19117647  1
  Cu  Cu3632  1  0.49579832  0.41666667  0.19117647  1
  Cu  Cu3633  1  0.49579832  0.58333333  0.19117647  1
  Cu  Cu3634  1  0.49579832  0.75000000  0.19117647  1
  Cu  Cu3635  1  0.49579832  0.91666667  0.19117647  1
  Cu  Cu3636  1  0.63865546  0.08333333  0.19117647  1
  Cu  Cu3637  1  0.63865546  0.25000000  0.19117647  1
  Cu  Cu3638  1  0.63865546  0.41666667  0.19117647  1
  Cu  Cu3639  1  0.63865546  0.58333333  0.19117647  1
  Cu  Cu3640  1  0.63865546  0.75000000  0.19117647  1
  Cu  Cu3641  1  0.63865546  0.91666667  0.19117647  1
  Cu  Cu3642  1  0.78151261  0.08333333  0.19117647  1
  Cu  Cu3643  1  0.78151261  0.25000000  0.19117647  1
  Cu  Cu3644  1  0.78151261  0.41666667  0.19117647  1
  Cu  Cu3645  1  0.78151261  0.58333333  0.19117647  1
  Cu  Cu3646  1  0.78151261  0.75000000  0.19117647  1
  Cu  Cu3647  1  0.78151261  0.91666667  0.19117647  1
  Cu  Cu3648  1  0.92436975  0.08333333  0.19117647  1
  Cu  Cu3649  1  0.92436975  0.25000000  0.19117647  1
  Cu  Cu3650  1  0.92436975  0.41666667  0.19117647  1
  Cu  Cu3651  1  0.92436975  0.58333333  0.19117647  1
  Cu  Cu3652  1  0.92436975  0.75000000  0.19117647  1
  Cu  Cu3653  1  0.92436975  0.91666667  0.19117647  1
  Cu  Cu3654  1  0.06722689  0.08333333  0.69117647  1
  Cu  Cu3655  1  0.06722689  0.25000000  0.69117647  1
  Cu  Cu3656  1  0.06722689  0.41666667  0.69117647  1
  Cu  Cu3657  1  0.06722689  0.58333333  0.69117647  1
  Cu  Cu3658  1  0.06722689  0.75000000  0.69117647  1
  Cu  Cu3659  1  0.06722689  0.91666667  0.69117647  1
  Cu  Cu3660  1  0.21008403  0.08333333  0.69117647  1
  Cu  Cu3661  1  0.21008403  0.25000000  0.69117647  1
  Cu  Cu3662  1  0.21008403  0.41666667  0.69117647  1
  Cu  Cu3663  1  0.21008403  0.58333333  0.69117647  1
  Cu  Cu3664  1  0.21008403  0.75000000  0.69117647  1
  Cu  Cu3665  1  0.21008403  0.91666667  0.69117647  1
  Cu  Cu3666  1  0.35294118  0.08333333  0.69117647  1
  Cu  Cu3667  1  0.35294118  0.25000000  0.69117647  1
  Cu  Cu3668  1  0.35294118  0.41666667  0.69117647  1
  Cu  Cu3669  1  0.35294118  0.58333333  0.69117647  1
  Cu  Cu3670  1  0.35294118  0.75000000  0.69117647  1
  Cu  Cu3671  1  0.35294118  0.91666667  0.69117647  1
  Cu  Cu3672  1  0.49579832  0.08333333  0.69117647  1
  Cu  Cu3673  1  0.49579832  0.25000000  0.69117647  1
  Cu  Cu3674  1  0.49579832  0.41666667  0.69117647  1
  Cu  Cu3675  1  0.49579832  0.58333333  0.69117647  1
  Cu  Cu3676  1  0.49579832  0.75000000  0.69117647  1
  Cu  Cu3677  1  0.49579832  0.91666667  0.69117647  1
  Cu  Cu3678  1  0.63865546  0.08333333  0.69117647  1
  Cu  Cu3679  1  0.63865546  0.25000000  0.69117647  1
  Cu  Cu3680  1  0.63865546  0.41666667  0.69117647  1
  Cu  Cu3681  1  0.63865546  0.58333333  0.69117647  1
  Cu  Cu3682  1  0.63865546  0.75000000  0.69117647  1
  Cu  Cu3683  1  0.63865546  0.91666667  0.69117647  1
  Cu  Cu3684  1  0.78151261  0.08333333  0.69117647  1
  Cu  Cu3685  1  0.78151261  0.25000000  0.69117647  1
  Cu  Cu3686  1  0.78151261  0.41666667  0.69117647  1
  Cu  Cu3687  1  0.78151261  0.58333333  0.69117647  1
  Cu  Cu3688  1  0.78151261  0.75000000  0.69117647  1
  Cu  Cu3689  1  0.78151261  0.91666667  0.69117647  1
  Cu  Cu3690  1  0.92436975  0.08333333  0.69117647  1
  Cu  Cu3691  1  0.92436975  0.25000000  0.69117647  1
  Cu  Cu3692  1  0.92436975  0.41666667  0.69117647  1
  Cu  Cu3693  1  0.92436975  0.58333333  0.69117647  1
  Cu  Cu3694  1  0.92436975  0.75000000  0.69117647  1
  Cu  Cu3695  1  0.92436975  0.91666667  0.69117647  1
  Cu  Cu3696  1  0.05042017  0.00000000  0.20588235  1
  Cu  Cu3697  1  0.05042017  0.16666667  0.20588235  1
  Cu  Cu3698  1  0.05042017  0.33333333  0.20588235  1
  Cu  Cu3699  1  0.05042017  0.50000000  0.20588235  1
  Cu  Cu3700  1  0.05042017  0.66666667  0.20588235  1
  Cu  Cu3701  1  0.05042017  0.83333333  0.20588235  1
  Cu  Cu3702  1  0.19327731  0.00000000  0.20588235  1
  Cu  Cu3703  1  0.19327731  0.16666667  0.20588235  1
  Cu  Cu3704  1  0.19327731  0.33333333  0.20588235  1
  Cu  Cu3705  1  0.19327731  0.50000000  0.20588235  1
  Cu  Cu3706  1  0.19327731  0.66666667  0.20588235  1
  Cu  Cu3707  1  0.19327731  0.83333333  0.20588235  1
  Cu  Cu3708  1  0.33613445  0.00000000  0.20588235  1
  Cu  Cu3709  1  0.33613445  0.16666667  0.20588235  1
  Cu  Cu3710  1  0.33613445  0.33333333  0.20588235  1
  Cu  Cu3711  1  0.33613445  0.50000000  0.20588235  1
  Cu  Cu3712  1  0.33613445  0.66666667  0.20588235  1
  Cu  Cu3713  1  0.33613445  0.83333333  0.20588235  1
  Cu  Cu3714  1  0.47899160  0.00000000  0.20588235  1
  Cu  Cu3715  1  0.47899160  0.16666667  0.20588235  1
  Cu  Cu3716  1  0.47899160  0.33333333  0.20588235  1
  Cu  Cu3717  1  0.47899160  0.50000000  0.20588235  1
  Cu  Cu3718  1  0.47899160  0.66666667  0.20588235  1
  Cu  Cu3719  1  0.47899160  0.83333333  0.20588235  1
  Cu  Cu3720  1  0.62184874  0.00000000  0.20588235  1
  Cu  Cu3721  1  0.62184874  0.16666667  0.20588235  1
  Cu  Cu3722  1  0.62184874  0.33333333  0.20588235  1
  Cu  Cu3723  1  0.62184874  0.50000000  0.20588235  1
  Cu  Cu3724  1  0.62184874  0.66666667  0.20588235  1
  Cu  Cu3725  1  0.62184874  0.83333333  0.20588235  1
  Cu  Cu3726  1  0.76470588  0.00000000  0.20588235  1
  Cu  Cu3727  1  0.76470588  0.16666667  0.20588235  1
  Cu  Cu3728  1  0.76470588  0.33333333  0.20588235  1
  Cu  Cu3729  1  0.76470588  0.50000000  0.20588235  1
  Cu  Cu3730  1  0.76470588  0.66666667  0.20588235  1
  Cu  Cu3731  1  0.76470588  0.83333333  0.20588235  1
  Cu  Cu3732  1  0.90756303  0.00000000  0.20588235  1
  Cu  Cu3733  1  0.90756303  0.16666667  0.20588235  1
  Cu  Cu3734  1  0.90756303  0.33333333  0.20588235  1
  Cu  Cu3735  1  0.90756303  0.50000000  0.20588235  1
  Cu  Cu3736  1  0.90756303  0.66666667  0.20588235  1
  Cu  Cu3737  1  0.90756303  0.83333333  0.20588235  1
  Cu  Cu3738  1  0.05042017  0.00000000  0.70588235  1
  Cu  Cu3739  1  0.05042017  0.16666667  0.70588235  1
  Cu  Cu3740  1  0.05042017  0.33333333  0.70588235  1
  Cu  Cu3741  1  0.05042017  0.50000000  0.70588235  1
  Cu  Cu3742  1  0.05042017  0.66666667  0.70588235  1
  Cu  Cu3743  1  0.05042017  0.83333333  0.70588235  1
  Cu  Cu3744  1  0.19327731  0.00000000  0.70588235  1
  Cu  Cu3745  1  0.19327731  0.16666667  0.70588235  1
  Cu  Cu3746  1  0.19327731  0.33333333  0.70588235  1
  Cu  Cu3747  1  0.19327731  0.50000000  0.70588235  1
  Cu  Cu3748  1  0.19327731  0.66666667  0.70588235  1
  Cu  Cu3749  1  0.19327731  0.83333333  0.70588235  1
  Cu  Cu3750  1  0.33613445  0.00000000  0.70588235  1
  Cu  Cu3751  1  0.33613445  0.16666667  0.70588235  1
  Cu  Cu3752  1  0.33613445  0.33333333  0.70588235  1
  Cu  Cu3753  1  0.33613445  0.50000000  0.70588235  1
  Cu  Cu3754  1  0.33613445  0.66666667  0.70588235  1
  Cu  Cu3755  1  0.33613445  0.83333333  0.70588235  1
  Cu  Cu3756  1  0.47899160  0.00000000  0.70588235  1
  Cu  Cu3757  1  0.47899160  0.16666667  0.70588235  1
  Cu  Cu3758  1  0.47899160  0.33333333  0.70588235  1
  Cu  Cu3759  1  0.47899160  0.50000000  0.70588235  1
  Cu  Cu3760  1  0.47899160  0.66666667  0.70588235  1
  Cu  Cu3761  1  0.47899160  0.83333333  0.70588235  1
  Cu  Cu3762  1  0.62184874  0.00000000  0.70588235  1
  Cu  Cu3763  1  0.62184874  0.16666667  0.70588235  1
  Cu  Cu3764  1  0.62184874  0.33333333  0.70588235  1
  Cu  Cu3765  1  0.62184874  0.50000000  0.70588235  1
  Cu  Cu3766  1  0.62184874  0.66666667  0.70588235  1
  Cu  Cu3767  1  0.62184874  0.83333333  0.70588235  1
  Cu  Cu3768  1  0.76470588  0.00000000  0.70588235  1
  Cu  Cu3769  1  0.76470588  0.16666667  0.70588235  1
  Cu  Cu3770  1  0.76470588  0.33333333  0.70588235  1
  Cu  Cu3771  1  0.76470588  0.50000000  0.70588235  1
  Cu  Cu3772  1  0.76470588  0.66666667  0.70588235  1
  Cu  Cu3773  1  0.76470588  0.83333333  0.70588235  1
  Cu  Cu3774  1  0.90756303  0.00000000  0.70588235  1
  Cu  Cu3775  1  0.90756303  0.16666667  0.70588235  1
  Cu  Cu3776  1  0.90756303  0.33333333  0.70588235  1
  Cu  Cu3777  1  0.90756303  0.50000000  0.70588235  1
  Cu  Cu3778  1  0.90756303  0.66666667  0.70588235  1
  Cu  Cu3779  1  0.90756303  0.83333333  0.70588235  1
  Cu  Cu3780  1  0.07983193  0.08333333  0.11764706  1
  Cu  Cu3781  1  0.07983193  0.25000000  0.11764706  1
  Cu  Cu3782  1  0.07983193  0.41666667  0.11764706  1
  Cu  Cu3783  1  0.07983193  0.58333333  0.11764706  1
  Cu  Cu3784  1  0.07983193  0.75000000  0.11764706  1
  Cu  Cu3785  1  0.07983193  0.91666667  0.11764706  1
  Cu  Cu3786  1  0.22268908  0.08333333  0.11764706  1
  Cu  Cu3787  1  0.22268908  0.25000000  0.11764706  1
  Cu  Cu3788  1  0.22268908  0.41666667  0.11764706  1
  Cu  Cu3789  1  0.22268908  0.58333333  0.11764706  1
  Cu  Cu3790  1  0.22268908  0.75000000  0.11764706  1
  Cu  Cu3791  1  0.22268908  0.91666667  0.11764706  1
  Cu  Cu3792  1  0.36554622  0.08333333  0.11764706  1
  Cu  Cu3793  1  0.36554622  0.25000000  0.11764706  1
  Cu  Cu3794  1  0.36554622  0.41666667  0.11764706  1
  Cu  Cu3795  1  0.36554622  0.58333333  0.11764706  1
  Cu  Cu3796  1  0.36554622  0.75000000  0.11764706  1
  Cu  Cu3797  1  0.36554622  0.91666667  0.11764706  1
  Cu  Cu3798  1  0.50840336  0.08333333  0.11764706  1
  Cu  Cu3799  1  0.50840336  0.25000000  0.11764706  1
  Cu  Cu3800  1  0.50840336  0.41666667  0.11764706  1
  Cu  Cu3801  1  0.50840336  0.58333333  0.11764706  1
  Cu  Cu3802  1  0.50840336  0.75000000  0.11764706  1
  Cu  Cu3803  1  0.50840336  0.91666667  0.11764706  1
  Cu  Cu3804  1  0.65126050  0.08333333  0.11764706  1
  Cu  Cu3805  1  0.65126050  0.25000000  0.11764706  1
  Cu  Cu3806  1  0.65126050  0.41666667  0.11764706  1
  Cu  Cu3807  1  0.65126050  0.58333333  0.11764706  1
  Cu  Cu3808  1  0.65126050  0.75000000  0.11764706  1
  Cu  Cu3809  1  0.65126050  0.91666667  0.11764706  1
  Cu  Cu3810  1  0.79411765  0.08333333  0.11764706  1
  Cu  Cu3811  1  0.79411765  0.25000000  0.11764706  1
  Cu  Cu3812  1  0.79411765  0.41666667  0.11764706  1
  Cu  Cu3813  1  0.79411765  0.58333333  0.11764706  1
  Cu  Cu3814  1  0.79411765  0.75000000  0.11764706  1
  Cu  Cu3815  1  0.79411765  0.91666667  0.11764706  1
  Cu  Cu3816  1  0.93697479  0.08333333  0.11764706  1
  Cu  Cu3817  1  0.93697479  0.25000000  0.11764706  1
  Cu  Cu3818  1  0.93697479  0.41666667  0.11764706  1
  Cu  Cu3819  1  0.93697479  0.58333333  0.11764706  1
  Cu  Cu3820  1  0.93697479  0.75000000  0.11764706  1
  Cu  Cu3821  1  0.93697479  0.91666667  0.11764706  1
  Cu  Cu3822  1  0.07983193  0.08333333  0.61764706  1
  Cu  Cu3823  1  0.07983193  0.25000000  0.61764706  1
  Cu  Cu3824  1  0.07983193  0.41666667  0.61764706  1
  Cu  Cu3825  1  0.07983193  0.58333333  0.61764706  1
  Cu  Cu3826  1  0.07983193  0.75000000  0.61764706  1
  Cu  Cu3827  1  0.07983193  0.91666667  0.61764706  1
  Cu  Cu3828  1  0.22268908  0.08333333  0.61764706  1
  Cu  Cu3829  1  0.22268908  0.25000000  0.61764706  1
  Cu  Cu3830  1  0.22268908  0.41666667  0.61764706  1
  Cu  Cu3831  1  0.22268908  0.58333333  0.61764706  1
  Cu  Cu3832  1  0.22268908  0.75000000  0.61764706  1
  Cu  Cu3833  1  0.22268908  0.91666667  0.61764706  1
  Cu  Cu3834  1  0.36554622  0.08333333  0.61764706  1
  Cu  Cu3835  1  0.36554622  0.25000000  0.61764706  1
  Cu  Cu3836  1  0.36554622  0.41666667  0.61764706  1
  Cu  Cu3837  1  0.36554622  0.58333333  0.61764706  1
  Cu  Cu3838  1  0.36554622  0.75000000  0.61764706  1
  Cu  Cu3839  1  0.36554622  0.91666667  0.61764706  1
  Cu  Cu3840  1  0.50840336  0.08333333  0.61764706  1
  Cu  Cu3841  1  0.50840336  0.25000000  0.61764706  1
  Cu  Cu3842  1  0.50840336  0.41666667  0.61764706  1
  Cu  Cu3843  1  0.50840336  0.58333333  0.61764706  1
  Cu  Cu3844  1  0.50840336  0.75000000  0.61764706  1
  Cu  Cu3845  1  0.50840336  0.91666667  0.61764706  1
  Cu  Cu3846  1  0.65126050  0.08333333  0.61764706  1
  Cu  Cu3847  1  0.65126050  0.25000000  0.61764706  1
  Cu  Cu3848  1  0.65126050  0.41666667  0.61764706  1
  Cu  Cu3849  1  0.65126050  0.58333333  0.61764706  1
  Cu  Cu3850  1  0.65126050  0.75000000  0.61764706  1
  Cu  Cu3851  1  0.65126050  0.91666667  0.61764706  1
  Cu  Cu3852  1  0.79411765  0.08333333  0.61764706  1
  Cu  Cu3853  1  0.79411765  0.25000000  0.61764706  1
  Cu  Cu3854  1  0.79411765  0.41666667  0.61764706  1
  Cu  Cu3855  1  0.79411765  0.58333333  0.61764706  1
  Cu  Cu3856  1  0.79411765  0.75000000  0.61764706  1
  Cu  Cu3857  1  0.79411765  0.91666667  0.61764706  1
  Cu  Cu3858  1  0.93697479  0.08333333  0.61764706  1
  Cu  Cu3859  1  0.93697479  0.25000000  0.61764706  1
  Cu  Cu3860  1  0.93697479  0.41666667  0.61764706  1
  Cu  Cu3861  1  0.93697479  0.58333333  0.61764706  1
  Cu  Cu3862  1  0.93697479  0.75000000  0.61764706  1
  Cu  Cu3863  1  0.93697479  0.91666667  0.61764706  1
  Cu  Cu3864  1  0.06302521  0.00000000  0.13235294  1
  Cu  Cu3865  1  0.06302521  0.16666667  0.13235294  1
  Cu  Cu3866  1  0.06302521  0.33333333  0.13235294  1
  Cu  Cu3867  1  0.06302521  0.50000000  0.13235294  1
  Cu  Cu3868  1  0.06302521  0.66666667  0.13235294  1
  Cu  Cu3869  1  0.06302521  0.83333333  0.13235294  1
  Cu  Cu3870  1  0.20588235  0.00000000  0.13235294  1
  Cu  Cu3871  1  0.20588235  0.16666667  0.13235294  1
  Cu  Cu3872  1  0.20588235  0.33333333  0.13235294  1
  Cu  Cu3873  1  0.20588235  0.50000000  0.13235294  1
  Cu  Cu3874  1  0.20588235  0.66666667  0.13235294  1
  Cu  Cu3875  1  0.20588235  0.83333333  0.13235294  1
  Cu  Cu3876  1  0.34873950  0.00000000  0.13235294  1
  Cu  Cu3877  1  0.34873950  0.16666667  0.13235294  1
  Cu  Cu3878  1  0.34873950  0.33333333  0.13235294  1
  Cu  Cu3879  1  0.34873950  0.50000000  0.13235294  1
  Cu  Cu3880  1  0.34873950  0.66666667  0.13235294  1
  Cu  Cu3881  1  0.34873950  0.83333333  0.13235294  1
  Cu  Cu3882  1  0.49159664  0.00000000  0.13235294  1
  Cu  Cu3883  1  0.49159664  0.16666667  0.13235294  1
  Cu  Cu3884  1  0.49159664  0.33333333  0.13235294  1
  Cu  Cu3885  1  0.49159664  0.50000000  0.13235294  1
  Cu  Cu3886  1  0.49159664  0.66666667  0.13235294  1
  Cu  Cu3887  1  0.49159664  0.83333333  0.13235294  1
  Cu  Cu3888  1  0.63445378  0.00000000  0.13235294  1
  Cu  Cu3889  1  0.63445378  0.16666667  0.13235294  1
  Cu  Cu3890  1  0.63445378  0.33333333  0.13235294  1
  Cu  Cu3891  1  0.63445378  0.50000000  0.13235294  1
  Cu  Cu3892  1  0.63445378  0.66666667  0.13235294  1
  Cu  Cu3893  1  0.63445378  0.83333333  0.13235294  1
  Cu  Cu3894  1  0.77731092  0.00000000  0.13235294  1
  Cu  Cu3895  1  0.77731092  0.16666667  0.13235294  1
  Cu  Cu3896  1  0.77731092  0.33333333  0.13235294  1
  Cu  Cu3897  1  0.77731092  0.50000000  0.13235294  1
  Cu  Cu3898  1  0.77731092  0.66666667  0.13235294  1
  Cu  Cu3899  1  0.77731092  0.83333333  0.13235294  1
  Cu  Cu3900  1  0.92016807  0.00000000  0.13235294  1
  Cu  Cu3901  1  0.92016807  0.16666667  0.13235294  1
  Cu  Cu3902  1  0.92016807  0.33333333  0.13235294  1
  Cu  Cu3903  1  0.92016807  0.50000000  0.13235294  1
  Cu  Cu3904  1  0.92016807  0.66666667  0.13235294  1
  Cu  Cu3905  1  0.92016807  0.83333333  0.13235294  1
  Cu  Cu3906  1  0.06302521  0.00000000  0.63235294  1
  Cu  Cu3907  1  0.06302521  0.16666667  0.63235294  1
  Cu  Cu3908  1  0.06302521  0.33333333  0.63235294  1
  Cu  Cu3909  1  0.06302521  0.50000000  0.63235294  1
  Cu  Cu3910  1  0.06302521  0.66666667  0.63235294  1
  Cu  Cu3911  1  0.06302521  0.83333333  0.63235294  1
  Cu  Cu3912  1  0.20588235  0.00000000  0.63235294  1
  Cu  Cu3913  1  0.20588235  0.16666667  0.63235294  1
  Cu  Cu3914  1  0.20588235  0.33333333  0.63235294  1
  Cu  Cu3915  1  0.20588235  0.50000000  0.63235294  1
  Cu  Cu3916  1  0.20588235  0.66666667  0.63235294  1
  Cu  Cu3917  1  0.20588235  0.83333333  0.63235294  1
  Cu  Cu3918  1  0.34873950  0.00000000  0.63235294  1
  Cu  Cu3919  1  0.34873950  0.16666667  0.63235294  1
  Cu  Cu3920  1  0.34873950  0.33333333  0.63235294  1
  Cu  Cu3921  1  0.34873950  0.50000000  0.63235294  1
  Cu  Cu3922  1  0.34873950  0.66666667  0.63235294  1
  Cu  Cu3923  1  0.34873950  0.83333333  0.63235294  1
  Cu  Cu3924  1  0.49159664  0.00000000  0.63235294  1
  Cu  Cu3925  1  0.49159664  0.16666667  0.63235294  1
  Cu  Cu3926  1  0.49159664  0.33333333  0.63235294  1
  Cu  Cu3927  1  0.49159664  0.50000000  0.63235294  1
  Cu  Cu3928  1  0.49159664  0.66666667  0.63235294  1
  Cu  Cu3929  1  0.49159664  0.83333333  0.63235294  1
  Cu  Cu3930  1  0.63445378  0.00000000  0.63235294  1
  Cu  Cu3931  1  0.63445378  0.16666667  0.63235294  1
  Cu  Cu3932  1  0.63445378  0.33333333  0.63235294  1
  Cu  Cu3933  1  0.63445378  0.50000000  0.63235294  1
  Cu  Cu3934  1  0.63445378  0.66666667  0.63235294  1
  Cu  Cu3935  1  0.63445378  0.83333333  0.63235294  1
  Cu  Cu3936  1  0.77731092  0.00000000  0.63235294  1
  Cu  Cu3937  1  0.77731092  0.16666667  0.63235294  1
  Cu  Cu3938  1  0.77731092  0.33333333  0.63235294  1
  Cu  Cu3939  1  0.77731092  0.50000000  0.63235294  1
  Cu  Cu3940  1  0.77731092  0.66666667  0.63235294  1
  Cu  Cu3941  1  0.77731092  0.83333333  0.63235294  1
  Cu  Cu3942  1  0.92016807  0.00000000  0.63235294  1
  Cu  Cu3943  1  0.92016807  0.16666667  0.63235294  1
  Cu  Cu3944  1  0.92016807  0.33333333  0.63235294  1
  Cu  Cu3945  1  0.92016807  0.50000000  0.63235294  1
  Cu  Cu3946  1  0.92016807  0.66666667  0.63235294  1
  Cu  Cu3947  1  0.92016807  0.83333333  0.63235294  1
  Cu  Cu3948  1  0.09243697  0.08333333  0.04411765  1
  Cu  Cu3949  1  0.09243697  0.25000000  0.04411765  1
  Cu  Cu3950  1  0.09243697  0.41666667  0.04411765  1
  Cu  Cu3951  1  0.09243697  0.58333333  0.04411765  1
  Cu  Cu3952  1  0.09243697  0.75000000  0.04411765  1
  Cu  Cu3953  1  0.09243697  0.91666667  0.04411765  1
  Cu  Cu3954  1  0.23529412  0.08333333  0.04411765  1
  Cu  Cu3955  1  0.23529412  0.25000000  0.04411765  1
  Cu  Cu3956  1  0.23529412  0.41666667  0.04411765  1
  Cu  Cu3957  1  0.23529412  0.58333333  0.04411765  1
  Cu  Cu3958  1  0.23529412  0.75000000  0.04411765  1
  Cu  Cu3959  1  0.23529412  0.91666667  0.04411765  1
  Cu  Cu3960  1  0.37815126  0.08333333  0.04411765  1
  Cu  Cu3961  1  0.37815126  0.25000000  0.04411765  1
  Cu  Cu3962  1  0.37815126  0.41666667  0.04411765  1
  Cu  Cu3963  1  0.37815126  0.58333333  0.04411765  1
  Cu  Cu3964  1  0.37815126  0.75000000  0.04411765  1
  Cu  Cu3965  1  0.37815126  0.91666667  0.04411765  1
  Cu  Cu3966  1  0.52100840  0.08333333  0.04411765  1
  Cu  Cu3967  1  0.52100840  0.25000000  0.04411765  1
  Cu  Cu3968  1  0.52100840  0.41666667  0.04411765  1
  Cu  Cu3969  1  0.52100840  0.58333333  0.04411765  1
  Cu  Cu3970  1  0.52100840  0.75000000  0.04411765  1
  Cu  Cu3971  1  0.52100840  0.91666667  0.04411765  1
  Cu  Cu3972  1  0.66386555  0.08333333  0.04411765  1
  Cu  Cu3973  1  0.66386555  0.25000000  0.04411765  1
  Cu  Cu3974  1  0.66386555  0.41666667  0.04411765  1
  Cu  Cu3975  1  0.66386555  0.58333333  0.04411765  1
  Cu  Cu3976  1  0.66386555  0.75000000  0.04411765  1
  Cu  Cu3977  1  0.66386555  0.91666667  0.04411765  1
  Cu  Cu3978  1  0.80672269  0.08333333  0.04411765  1
  Cu  Cu3979  1  0.80672269  0.25000000  0.04411765  1
  Cu  Cu3980  1  0.80672269  0.41666667  0.04411765  1
  Cu  Cu3981  1  0.80672269  0.58333333  0.04411765  1
  Cu  Cu3982  1  0.80672269  0.75000000  0.04411765  1
  Cu  Cu3983  1  0.80672269  0.91666667  0.04411765  1
  Cu  Cu3984  1  0.94957983  0.08333333  0.04411765  1
  Cu  Cu3985  1  0.94957983  0.25000000  0.04411765  1
  Cu  Cu3986  1  0.94957983  0.41666667  0.04411765  1
  Cu  Cu3987  1  0.94957983  0.58333333  0.04411765  1
  Cu  Cu3988  1  0.94957983  0.75000000  0.04411765  1
  Cu  Cu3989  1  0.94957983  0.91666667  0.04411765  1
  Cu  Cu3990  1  0.09243697  0.08333333  0.54411765  1
  Cu  Cu3991  1  0.09243697  0.25000000  0.54411765  1
  Cu  Cu3992  1  0.09243697  0.41666667  0.54411765  1
  Cu  Cu3993  1  0.09243697  0.58333333  0.54411765  1
  Cu  Cu3994  1  0.09243697  0.75000000  0.54411765  1
  Cu  Cu3995  1  0.09243697  0.91666667  0.54411765  1
  Cu  Cu3996  1  0.23529412  0.08333333  0.54411765  1
  Cu  Cu3997  1  0.23529412  0.25000000  0.54411765  1
  Cu  Cu3998  1  0.23529412  0.41666667  0.54411765  1
  Cu  Cu3999  1  0.23529412  0.58333333  0.54411765  1
  Cu  Cu4000  1  0.23529412  0.75000000  0.54411765  1
  Cu  Cu4001  1  0.23529412  0.91666667  0.54411765  1
  Cu  Cu4002  1  0.37815126  0.08333333  0.54411765  1
  Cu  Cu4003  1  0.37815126  0.25000000  0.54411765  1
  Cu  Cu4004  1  0.37815126  0.41666667  0.54411765  1
  Cu  Cu4005  1  0.37815126  0.58333333  0.54411765  1
  Cu  Cu4006  1  0.37815126  0.75000000  0.54411765  1
  Cu  Cu4007  1  0.37815126  0.91666667  0.54411765  1
  Cu  Cu4008  1  0.52100840  0.08333333  0.54411765  1
  Cu  Cu4009  1  0.52100840  0.25000000  0.54411765  1
  Cu  Cu4010  1  0.52100840  0.41666667  0.54411765  1
  Cu  Cu4011  1  0.52100840  0.58333333  0.54411765  1
  Cu  Cu4012  1  0.52100840  0.75000000  0.54411765  1
  Cu  Cu4013  1  0.52100840  0.91666667  0.54411765  1
  Cu  Cu4014  1  0.66386555  0.08333333  0.54411765  1
  Cu  Cu4015  1  0.66386555  0.25000000  0.54411765  1
  Cu  Cu4016  1  0.66386555  0.41666667  0.54411765  1
  Cu  Cu4017  1  0.66386555  0.58333333  0.54411765  1
  Cu  Cu4018  1  0.66386555  0.75000000  0.54411765  1
  Cu  Cu4019  1  0.66386555  0.91666667  0.54411765  1
  Cu  Cu4020  1  0.80672269  0.08333333  0.54411765  1
  Cu  Cu4021  1  0.80672269  0.25000000  0.54411765  1
  Cu  Cu4022  1  0.80672269  0.41666667  0.54411765  1
  Cu  Cu4023  1  0.80672269  0.58333333  0.54411765  1
  Cu  Cu4024  1  0.80672269  0.75000000  0.54411765  1
  Cu  Cu4025  1  0.80672269  0.91666667  0.54411765  1
  Cu  Cu4026  1  0.94957983  0.08333333  0.54411765  1
  Cu  Cu4027  1  0.94957983  0.25000000  0.54411765  1
  Cu  Cu4028  1  0.94957983  0.41666667  0.54411765  1
  Cu  Cu4029  1  0.94957983  0.58333333  0.54411765  1
  Cu  Cu4030  1  0.94957983  0.75000000  0.54411765  1
  Cu  Cu4031  1  0.94957983  0.91666667  0.54411765  1
  Cu  Cu4032  1  0.07563025  0.00000000  0.05882353  1
  Cu  Cu4033  1  0.07563025  0.16666667  0.05882353  1
  Cu  Cu4034  1  0.07563025  0.33333333  0.05882353  1
  Cu  Cu4035  1  0.07563025  0.50000000  0.05882353  1
  Cu  Cu4036  1  0.07563025  0.66666667  0.05882353  1
  Cu  Cu4037  1  0.07563025  0.83333333  0.05882353  1
  Cu  Cu4038  1  0.21848739  0.00000000  0.05882353  1
  Cu  Cu4039  1  0.21848739  0.16666667  0.05882353  1
  Cu  Cu4040  1  0.21848739  0.33333333  0.05882353  1
  Cu  Cu4041  1  0.21848739  0.50000000  0.05882353  1
  Cu  Cu4042  1  0.21848739  0.66666667  0.05882353  1
  Cu  Cu4043  1  0.21848739  0.83333333  0.05882353  1
  Cu  Cu4044  1  0.36134454  0.00000000  0.05882353  1
  Cu  Cu4045  1  0.36134454  0.16666667  0.05882353  1
  Cu  Cu4046  1  0.36134454  0.33333333  0.05882353  1
  Cu  Cu4047  1  0.36134454  0.50000000  0.05882353  1
  Cu  Cu4048  1  0.36134454  0.66666667  0.05882353  1
  Cu  Cu4049  1  0.36134454  0.83333333  0.05882353  1
  Cu  Cu4050  1  0.50420168  0.00000000  0.05882353  1
  Cu  Cu4051  1  0.50420168  0.16666667  0.05882353  1
  Cu  Cu4052  1  0.50420168  0.33333333  0.05882353  1
  Cu  Cu4053  1  0.50420168  0.50000000  0.05882353  1
  Cu  Cu4054  1  0.50420168  0.66666667  0.05882353  1
  Cu  Cu4055  1  0.50420168  0.83333333  0.05882353  1
  Cu  Cu4056  1  0.64705882  0.00000000  0.05882353  1
  Cu  Cu4057  1  0.64705882  0.16666667  0.05882353  1
  Cu  Cu4058  1  0.64705882  0.33333333  0.05882353  1
  Cu  Cu4059  1  0.64705882  0.50000000  0.05882353  1
  Cu  Cu4060  1  0.64705882  0.66666667  0.05882353  1
  Cu  Cu4061  1  0.64705882  0.83333333  0.05882353  1
  Cu  Cu4062  1  0.78991597  0.00000000  0.05882353  1
  Cu  Cu4063  1  0.78991597  0.16666667  0.05882353  1
  Cu  Cu4064  1  0.78991597  0.33333333  0.05882353  1
  Cu  Cu4065  1  0.78991597  0.50000000  0.05882353  1
  Cu  Cu4066  1  0.78991597  0.66666667  0.05882353  1
  Cu  Cu4067  1  0.78991597  0.83333333  0.05882353  1
  Cu  Cu4068  1  0.93277311  0.00000000  0.05882353  1
  Cu  Cu4069  1  0.93277311  0.16666667  0.05882353  1
  Cu  Cu4070  1  0.93277311  0.33333333  0.05882353  1
  Cu  Cu4071  1  0.93277311  0.50000000  0.05882353  1
  Cu  Cu4072  1  0.93277311  0.66666667  0.05882353  1
  Cu  Cu4073  1  0.93277311  0.83333333  0.05882353  1
  Cu  Cu4074  1  0.07563025  0.00000000  0.55882353  1
  Cu  Cu4075  1  0.07563025  0.16666667  0.55882353  1
  Cu  Cu4076  1  0.07563025  0.33333333  0.55882353  1
  Cu  Cu4077  1  0.07563025  0.50000000  0.55882353  1
  Cu  Cu4078  1  0.07563025  0.66666667  0.55882353  1
  Cu  Cu4079  1  0.07563025  0.83333333  0.55882353  1
  Cu  Cu4080  1  0.21848739  0.00000000  0.55882353  1
  Cu  Cu4081  1  0.21848739  0.16666667  0.55882353  1
  Cu  Cu4082  1  0.21848739  0.33333333  0.55882353  1
  Cu  Cu4083  1  0.21848739  0.50000000  0.55882353  1
  Cu  Cu4084  1  0.21848739  0.66666667  0.55882353  1
  Cu  Cu4085  1  0.21848739  0.83333333  0.55882353  1
  Cu  Cu4086  1  0.36134454  0.00000000  0.55882353  1
  Cu  Cu4087  1  0.36134454  0.16666667  0.55882353  1
  Cu  Cu4088  1  0.36134454  0.33333333  0.55882353  1
  Cu  Cu4089  1  0.36134454  0.50000000  0.55882353  1
  Cu  Cu4090  1  0.36134454  0.66666667  0.55882353  1
  Cu  Cu4091  1  0.36134454  0.83333333  0.55882353  1
  Cu  Cu4092  1  0.50420168  0.00000000  0.55882353  1
  Cu  Cu4093  1  0.50420168  0.16666667  0.55882353  1
  Cu  Cu4094  1  0.50420168  0.33333333  0.55882353  1
  Cu  Cu4095  1  0.50420168  0.50000000  0.55882353  1
  Cu  Cu4096  1  0.50420168  0.66666667  0.55882353  1
  Cu  Cu4097  1  0.50420168  0.83333333  0.55882353  1
  Cu  Cu4098  1  0.64705882  0.00000000  0.55882353  1
  Cu  Cu4099  1  0.64705882  0.16666667  0.55882353  1
  Cu  Cu4100  1  0.64705882  0.33333333  0.55882353  1
  Cu  Cu4101  1  0.64705882  0.50000000  0.55882353  1
  Cu  Cu4102  1  0.64705882  0.66666667  0.55882353  1
  Cu  Cu4103  1  0.64705882  0.83333333  0.55882353  1
  Cu  Cu4104  1  0.78991597  0.00000000  0.55882353  1
  Cu  Cu4105  1  0.78991597  0.16666667  0.55882353  1
  Cu  Cu4106  1  0.78991597  0.33333333  0.55882353  1
  Cu  Cu4107  1  0.78991597  0.50000000  0.55882353  1
  Cu  Cu4108  1  0.78991597  0.66666667  0.55882353  1
  Cu  Cu4109  1  0.78991597  0.83333333  0.55882353  1
  Cu  Cu4110  1  0.93277311  0.00000000  0.55882353  1
  Cu  Cu4111  1  0.93277311  0.16666667  0.55882353  1
  Cu  Cu4112  1  0.93277311  0.33333333  0.55882353  1
  Cu  Cu4113  1  0.93277311  0.50000000  0.55882353  1
  Cu  Cu4114  1  0.93277311  0.66666667  0.55882353  1
  Cu  Cu4115  1  0.93277311  0.83333333  0.55882353  1
  Cu  Cu4116  1  0.00840336  0.08333333  0.36764706  1
  Cu  Cu4117  1  0.00840336  0.25000000  0.36764706  1
  Cu  Cu4118  1  0.00840336  0.41666667  0.36764706  1
  Cu  Cu4119  1  0.00840336  0.58333333  0.36764706  1
  Cu  Cu4120  1  0.00840336  0.75000000  0.36764706  1
  Cu  Cu4121  1  0.00840336  0.91666667  0.36764706  1
  Cu  Cu4122  1  0.15126050  0.08333333  0.36764706  1
  Cu  Cu4123  1  0.15126050  0.25000000  0.36764706  1
  Cu  Cu4124  1  0.15126050  0.41666667  0.36764706  1
  Cu  Cu4125  1  0.15126050  0.58333333  0.36764706  1
  Cu  Cu4126  1  0.15126050  0.75000000  0.36764706  1
  Cu  Cu4127  1  0.15126050  0.91666667  0.36764706  1
  Cu  Cu4128  1  0.29411765  0.08333333  0.36764706  1
  Cu  Cu4129  1  0.29411765  0.25000000  0.36764706  1
  Cu  Cu4130  1  0.29411765  0.41666667  0.36764706  1
  Cu  Cu4131  1  0.29411765  0.58333333  0.36764706  1
  Cu  Cu4132  1  0.29411765  0.75000000  0.36764706  1
  Cu  Cu4133  1  0.29411765  0.91666667  0.36764706  1
  Cu  Cu4134  1  0.43697479  0.08333333  0.36764706  1
  Cu  Cu4135  1  0.43697479  0.25000000  0.36764706  1
  Cu  Cu4136  1  0.43697479  0.41666667  0.36764706  1
  Cu  Cu4137  1  0.43697479  0.58333333  0.36764706  1
  Cu  Cu4138  1  0.43697479  0.75000000  0.36764706  1
  Cu  Cu4139  1  0.43697479  0.91666667  0.36764706  1
  Cu  Cu4140  1  0.57983193  0.08333333  0.36764706  1
  Cu  Cu4141  1  0.57983193  0.25000000  0.36764706  1
  Cu  Cu4142  1  0.57983193  0.41666667  0.36764706  1
  Cu  Cu4143  1  0.57983193  0.58333333  0.36764706  1
  Cu  Cu4144  1  0.57983193  0.75000000  0.36764706  1
  Cu  Cu4145  1  0.57983193  0.91666667  0.36764706  1
  Cu  Cu4146  1  0.72268908  0.08333333  0.36764706  1
  Cu  Cu4147  1  0.72268908  0.25000000  0.36764706  1
  Cu  Cu4148  1  0.72268908  0.41666667  0.36764706  1
  Cu  Cu4149  1  0.72268908  0.58333333  0.36764706  1
  Cu  Cu4150  1  0.72268908  0.75000000  0.36764706  1
  Cu  Cu4151  1  0.72268908  0.91666667  0.36764706  1
  Cu  Cu4152  1  0.86554622  0.08333333  0.36764706  1
  Cu  Cu4153  1  0.86554622  0.25000000  0.36764706  1
  Cu  Cu4154  1  0.86554622  0.41666667  0.36764706  1
  Cu  Cu4155  1  0.86554622  0.58333333  0.36764706  1
  Cu  Cu4156  1  0.86554622  0.75000000  0.36764706  1
  Cu  Cu4157  1  0.86554622  0.91666667  0.36764706  1
  Cu  Cu4158  1  0.00840336  0.08333333  0.86764706  1
  Cu  Cu4159  1  0.00840336  0.25000000  0.86764706  1
  Cu  Cu4160  1  0.00840336  0.41666667  0.86764706  1
  Cu  Cu4161  1  0.00840336  0.58333333  0.86764706  1
  Cu  Cu4162  1  0.00840336  0.75000000  0.86764706  1
  Cu  Cu4163  1  0.00840336  0.91666667  0.86764706  1
  Cu  Cu4164  1  0.15126050  0.08333333  0.86764706  1
  Cu  Cu4165  1  0.15126050  0.25000000  0.86764706  1
  Cu  Cu4166  1  0.15126050  0.41666667  0.86764706  1
  Cu  Cu4167  1  0.15126050  0.58333333  0.86764706  1
  Cu  Cu4168  1  0.15126050  0.75000000  0.86764706  1
  Cu  Cu4169  1  0.15126050  0.91666667  0.86764706  1
  Cu  Cu4170  1  0.29411765  0.08333333  0.86764706  1
  Cu  Cu4171  1  0.29411765  0.25000000  0.86764706  1
  Cu  Cu4172  1  0.29411765  0.41666667  0.86764706  1
  Cu  Cu4173  1  0.29411765  0.58333333  0.86764706  1
  Cu  Cu4174  1  0.29411765  0.75000000  0.86764706  1
  Cu  Cu4175  1  0.29411765  0.91666667  0.86764706  1
  Cu  Cu4176  1  0.43697479  0.08333333  0.86764706  1
  Cu  Cu4177  1  0.43697479  0.25000000  0.86764706  1
  Cu  Cu4178  1  0.43697479  0.41666667  0.86764706  1
  Cu  Cu4179  1  0.43697479  0.58333333  0.86764706  1
  Cu  Cu4180  1  0.43697479  0.75000000  0.86764706  1
  Cu  Cu4181  1  0.43697479  0.91666667  0.86764706  1
  Cu  Cu4182  1  0.57983193  0.08333333  0.86764706  1
  Cu  Cu4183  1  0.57983193  0.25000000  0.86764706  1
  Cu  Cu4184  1  0.57983193  0.41666667  0.86764706  1
  Cu  Cu4185  1  0.57983193  0.58333333  0.86764706  1
  Cu  Cu4186  1  0.57983193  0.75000000  0.86764706  1
  Cu  Cu4187  1  0.57983193  0.91666667  0.86764706  1
  Cu  Cu4188  1  0.72268908  0.08333333  0.86764706  1
  Cu  Cu4189  1  0.72268908  0.25000000  0.86764706  1
  Cu  Cu4190  1  0.72268908  0.41666667  0.86764706  1
  Cu  Cu4191  1  0.72268908  0.58333333  0.86764706  1
  Cu  Cu4192  1  0.72268908  0.75000000  0.86764706  1
  Cu  Cu4193  1  0.72268908  0.91666667  0.86764706  1
  Cu  Cu4194  1  0.86554622  0.08333333  0.86764706  1
  Cu  Cu4195  1  0.86554622  0.25000000  0.86764706  1
  Cu  Cu4196  1  0.86554622  0.41666667  0.86764706  1
  Cu  Cu4197  1  0.86554622  0.58333333  0.86764706  1
  Cu  Cu4198  1  0.86554622  0.75000000  0.86764706  1
  Cu  Cu4199  1  0.86554622  0.91666667  0.86764706  1
  Cu  Cu4200  1  0.02100840  0.08333333  0.29411765  1
  Cu  Cu4201  1  0.02100840  0.25000000  0.29411765  1
  Cu  Cu4202  1  0.02100840  0.41666667  0.29411765  1
  Cu  Cu4203  1  0.02100840  0.58333333  0.29411765  1
  Cu  Cu4204  1  0.02100840  0.75000000  0.29411765  1
  Cu  Cu4205  1  0.02100840  0.91666667  0.29411765  1
  Cu  Cu4206  1  0.16386555  0.08333333  0.29411765  1
  Cu  Cu4207  1  0.16386555  0.25000000  0.29411765  1
  Cu  Cu4208  1  0.16386555  0.41666667  0.29411765  1
  Cu  Cu4209  1  0.16386555  0.58333333  0.29411765  1
  Cu  Cu4210  1  0.16386555  0.75000000  0.29411765  1
  Cu  Cu4211  1  0.16386555  0.91666667  0.29411765  1
  Cu  Cu4212  1  0.30672269  0.08333333  0.29411765  1
  Cu  Cu4213  1  0.30672269  0.25000000  0.29411765  1
  Cu  Cu4214  1  0.30672269  0.41666667  0.29411765  1
  Cu  Cu4215  1  0.30672269  0.58333333  0.29411765  1
  Cu  Cu4216  1  0.30672269  0.75000000  0.29411765  1
  Cu  Cu4217  1  0.30672269  0.91666667  0.29411765  1
  Cu  Cu4218  1  0.44957983  0.08333333  0.29411765  1
  Cu  Cu4219  1  0.44957983  0.25000000  0.29411765  1
  Cu  Cu4220  1  0.44957983  0.41666667  0.29411765  1
  Cu  Cu4221  1  0.44957983  0.58333333  0.29411765  1
  Cu  Cu4222  1  0.44957983  0.75000000  0.29411765  1
  Cu  Cu4223  1  0.44957983  0.91666667  0.29411765  1
  Cu  Cu4224  1  0.59243697  0.08333333  0.29411765  1
  Cu  Cu4225  1  0.59243697  0.25000000  0.29411765  1
  Cu  Cu4226  1  0.59243697  0.41666667  0.29411765  1
  Cu  Cu4227  1  0.59243697  0.58333333  0.29411765  1
  Cu  Cu4228  1  0.59243697  0.75000000  0.29411765  1
  Cu  Cu4229  1  0.59243697  0.91666667  0.29411765  1
  Cu  Cu4230  1  0.73529412  0.08333333  0.29411765  1
  Cu  Cu4231  1  0.73529412  0.25000000  0.29411765  1
  Cu  Cu4232  1  0.73529412  0.41666667  0.29411765  1
  Cu  Cu4233  1  0.73529412  0.58333333  0.29411765  1
  Cu  Cu4234  1  0.73529412  0.75000000  0.29411765  1
  Cu  Cu4235  1  0.73529412  0.91666667  0.29411765  1
  Cu  Cu4236  1  0.87815126  0.08333333  0.29411765  1
  Cu  Cu4237  1  0.87815126  0.25000000  0.29411765  1
  Cu  Cu4238  1  0.87815126  0.41666667  0.29411765  1
  Cu  Cu4239  1  0.87815126  0.58333333  0.29411765  1
  Cu  Cu4240  1  0.87815126  0.75000000  0.29411765  1
  Cu  Cu4241  1  0.87815126  0.91666667  0.29411765  1
  Cu  Cu4242  1  0.02100840  0.08333333  0.79411765  1
  Cu  Cu4243  1  0.02100840  0.25000000  0.79411765  1
  Cu  Cu4244  1  0.02100840  0.41666667  0.79411765  1
  Cu  Cu4245  1  0.02100840  0.58333333  0.79411765  1
  Cu  Cu4246  1  0.02100840  0.75000000  0.79411765  1
  Cu  Cu4247  1  0.02100840  0.91666667  0.79411765  1
  Cu  Cu4248  1  0.16386555  0.08333333  0.79411765  1
  Cu  Cu4249  1  0.16386555  0.25000000  0.79411765  1
  Cu  Cu4250  1  0.16386555  0.41666667  0.79411765  1
  Cu  Cu4251  1  0.16386555  0.58333333  0.79411765  1
  Cu  Cu4252  1  0.16386555  0.75000000  0.79411765  1
  Cu  Cu4253  1  0.16386555  0.91666667  0.79411765  1
  Cu  Cu4254  1  0.30672269  0.08333333  0.79411765  1
  Cu  Cu4255  1  0.30672269  0.25000000  0.79411765  1
  Cu  Cu4256  1  0.30672269  0.41666667  0.79411765  1
  Cu  Cu4257  1  0.30672269  0.58333333  0.79411765  1
  Cu  Cu4258  1  0.30672269  0.75000000  0.79411765  1
  Cu  Cu4259  1  0.30672269  0.91666667  0.79411765  1
  Cu  Cu4260  1  0.44957983  0.08333333  0.79411765  1
  Cu  Cu4261  1  0.44957983  0.25000000  0.79411765  1
  Cu  Cu4262  1  0.44957983  0.41666667  0.79411765  1
  Cu  Cu4263  1  0.44957983  0.58333333  0.79411765  1
  Cu  Cu4264  1  0.44957983  0.75000000  0.79411765  1
  Cu  Cu4265  1  0.44957983  0.91666667  0.79411765  1
  Cu  Cu4266  1  0.59243697  0.08333333  0.79411765  1
  Cu  Cu4267  1  0.59243697  0.25000000  0.79411765  1
  Cu  Cu4268  1  0.59243697  0.41666667  0.79411765  1
  Cu  Cu4269  1  0.59243697  0.58333333  0.79411765  1
  Cu  Cu4270  1  0.59243697  0.75000000  0.79411765  1
  Cu  Cu4271  1  0.59243697  0.91666667  0.79411765  1
  Cu  Cu4272  1  0.73529412  0.08333333  0.79411765  1
  Cu  Cu4273  1  0.73529412  0.25000000  0.79411765  1
  Cu  Cu4274  1  0.73529412  0.41666667  0.79411765  1
  Cu  Cu4275  1  0.73529412  0.58333333  0.79411765  1
  Cu  Cu4276  1  0.73529412  0.75000000  0.79411765  1
  Cu  Cu4277  1  0.73529412  0.91666667  0.79411765  1
  Cu  Cu4278  1  0.87815126  0.08333333  0.79411765  1
  Cu  Cu4279  1  0.87815126  0.25000000  0.79411765  1
  Cu  Cu4280  1  0.87815126  0.41666667  0.79411765  1
  Cu  Cu4281  1  0.87815126  0.58333333  0.79411765  1
  Cu  Cu4282  1  0.87815126  0.75000000  0.79411765  1
  Cu  Cu4283  1  0.87815126  0.91666667  0.79411765  1
  Cu  Cu4284  1  0.00420168  0.00000000  0.30882353  1
  Cu  Cu4285  1  0.00420168  0.16666667  0.30882353  1
  Cu  Cu4286  1  0.00420168  0.33333333  0.30882353  1
  Cu  Cu4287  1  0.00420168  0.50000000  0.30882353  1
  Cu  Cu4288  1  0.00420168  0.66666667  0.30882353  1
  Cu  Cu4289  1  0.00420168  0.83333333  0.30882353  1
  Cu  Cu4290  1  0.14705882  0.00000000  0.30882353  1
  Cu  Cu4291  1  0.14705882  0.16666667  0.30882353  1
  Cu  Cu4292  1  0.14705882  0.33333333  0.30882353  1
  Cu  Cu4293  1  0.14705882  0.50000000  0.30882353  1
  Cu  Cu4294  1  0.14705882  0.66666667  0.30882353  1
  Cu  Cu4295  1  0.14705882  0.83333333  0.30882353  1
  Cu  Cu4296  1  0.28991597  0.00000000  0.30882353  1
  Cu  Cu4297  1  0.28991597  0.16666667  0.30882353  1
  Cu  Cu4298  1  0.28991597  0.33333333  0.30882353  1
  Cu  Cu4299  1  0.28991597  0.50000000  0.30882353  1
  Cu  Cu4300  1  0.28991597  0.66666667  0.30882353  1
  Cu  Cu4301  1  0.28991597  0.83333333  0.30882353  1
  Cu  Cu4302  1  0.43277311  0.00000000  0.30882353  1
  Cu  Cu4303  1  0.43277311  0.16666667  0.30882353  1
  Cu  Cu4304  1  0.43277311  0.33333333  0.30882353  1
  Cu  Cu4305  1  0.43277311  0.50000000  0.30882353  1
  Cu  Cu4306  1  0.43277311  0.66666667  0.30882353  1
  Cu  Cu4307  1  0.43277311  0.83333333  0.30882353  1
  Cu  Cu4308  1  0.57563025  0.00000000  0.30882353  1
  Cu  Cu4309  1  0.57563025  0.16666667  0.30882353  1
  Cu  Cu4310  1  0.57563025  0.33333333  0.30882353  1
  Cu  Cu4311  1  0.57563025  0.50000000  0.30882353  1
  Cu  Cu4312  1  0.57563025  0.66666667  0.30882353  1
  Cu  Cu4313  1  0.57563025  0.83333333  0.30882353  1
  Cu  Cu4314  1  0.71848739  0.00000000  0.30882353  1
  Cu  Cu4315  1  0.71848739  0.16666667  0.30882353  1
  Cu  Cu4316  1  0.71848739  0.33333333  0.30882353  1
  Cu  Cu4317  1  0.71848739  0.50000000  0.30882353  1
  Cu  Cu4318  1  0.71848739  0.66666667  0.30882353  1
  Cu  Cu4319  1  0.71848739  0.83333333  0.30882353  1
  Cu  Cu4320  1  0.86134454  0.00000000  0.30882353  1
  Cu  Cu4321  1  0.86134454  0.16666667  0.30882353  1
  Cu  Cu4322  1  0.86134454  0.33333333  0.30882353  1
  Cu  Cu4323  1  0.86134454  0.50000000  0.30882353  1
  Cu  Cu4324  1  0.86134454  0.66666667  0.30882353  1
  Cu  Cu4325  1  0.86134454  0.83333333  0.30882353  1
  Cu  Cu4326  1  0.00420168  0.00000000  0.80882353  1
  Cu  Cu4327  1  0.00420168  0.16666667  0.80882353  1
  Cu  Cu4328  1  0.00420168  0.33333333  0.80882353  1
  Cu  Cu4329  1  0.00420168  0.50000000  0.80882353  1
  Cu  Cu4330  1  0.00420168  0.66666667  0.80882353  1
  Cu  Cu4331  1  0.00420168  0.83333333  0.80882353  1
  Cu  Cu4332  1  0.14705882  0.00000000  0.80882353  1
  Cu  Cu4333  1  0.14705882  0.16666667  0.80882353  1
  Cu  Cu4334  1  0.14705882  0.33333333  0.80882353  1
  Cu  Cu4335  1  0.14705882  0.50000000  0.80882353  1
  Cu  Cu4336  1  0.14705882  0.66666667  0.80882353  1
  Cu  Cu4337  1  0.14705882  0.83333333  0.80882353  1
  Cu  Cu4338  1  0.28991597  0.00000000  0.80882353  1
  Cu  Cu4339  1  0.28991597  0.16666667  0.80882353  1
  Cu  Cu4340  1  0.28991597  0.33333333  0.80882353  1
  Cu  Cu4341  1  0.28991597  0.50000000  0.80882353  1
  Cu  Cu4342  1  0.28991597  0.66666667  0.80882353  1
  Cu  Cu4343  1  0.28991597  0.83333333  0.80882353  1
  Cu  Cu4344  1  0.43277311  0.00000000  0.80882353  1
  Cu  Cu4345  1  0.43277311  0.16666667  0.80882353  1
  Cu  Cu4346  1  0.43277311  0.33333333  0.80882353  1
  Cu  Cu4347  1  0.43277311  0.50000000  0.80882353  1
  Cu  Cu4348  1  0.43277311  0.66666667  0.80882353  1
  Cu  Cu4349  1  0.43277311  0.83333333  0.80882353  1
  Cu  Cu4350  1  0.57563025  0.00000000  0.80882353  1
  Cu  Cu4351  1  0.57563025  0.16666667  0.80882353  1
  Cu  Cu4352  1  0.57563025  0.33333333  0.80882353  1
  Cu  Cu4353  1  0.57563025  0.50000000  0.80882353  1
  Cu  Cu4354  1  0.57563025  0.66666667  0.80882353  1
  Cu  Cu4355  1  0.57563025  0.83333333  0.80882353  1
  Cu  Cu4356  1  0.71848739  0.00000000  0.80882353  1
  Cu  Cu4357  1  0.71848739  0.16666667  0.80882353  1
  Cu  Cu4358  1  0.71848739  0.33333333  0.80882353  1
  Cu  Cu4359  1  0.71848739  0.50000000  0.80882353  1
  Cu  Cu4360  1  0.71848739  0.66666667  0.80882353  1
  Cu  Cu4361  1  0.71848739  0.83333333  0.80882353  1
  Cu  Cu4362  1  0.86134454  0.00000000  0.80882353  1
  Cu  Cu4363  1  0.86134454  0.16666667  0.80882353  1
  Cu  Cu4364  1  0.86134454  0.33333333  0.80882353  1
  Cu  Cu4365  1  0.86134454  0.50000000  0.80882353  1
  Cu  Cu4366  1  0.86134454  0.66666667  0.80882353  1
  Cu  Cu4367  1  0.86134454  0.83333333  0.80882353  1
  Cu  Cu4368  1  0.03361345  0.08333333  0.22058824  1
  Cu  Cu4369  1  0.03361345  0.25000000  0.22058824  1
  Cu  Cu4370  1  0.03361345  0.41666667  0.22058824  1
  Cu  Cu4371  1  0.03361345  0.58333333  0.22058824  1
  Cu  Cu4372  1  0.03361345  0.75000000  0.22058824  1
  Cu  Cu4373  1  0.03361345  0.91666667  0.22058824  1
  Cu  Cu4374  1  0.17647059  0.08333333  0.22058824  1
  Cu  Cu4375  1  0.17647059  0.25000000  0.22058824  1
  Cu  Cu4376  1  0.17647059  0.41666667  0.22058824  1
  Cu  Cu4377  1  0.17647059  0.58333333  0.22058824  1
  Cu  Cu4378  1  0.17647059  0.75000000  0.22058824  1
  Cu  Cu4379  1  0.17647059  0.91666667  0.22058824  1
  Cu  Cu4380  1  0.31932773  0.08333333  0.22058824  1
  Cu  Cu4381  1  0.31932773  0.25000000  0.22058824  1
  Cu  Cu4382  1  0.31932773  0.41666667  0.22058824  1
  Cu  Cu4383  1  0.31932773  0.58333333  0.22058824  1
  Cu  Cu4384  1  0.31932773  0.75000000  0.22058824  1
  Cu  Cu4385  1  0.31932773  0.91666667  0.22058824  1
  Cu  Cu4386  1  0.46218487  0.08333333  0.22058824  1
  Cu  Cu4387  1  0.46218487  0.25000000  0.22058824  1
  Cu  Cu4388  1  0.46218487  0.41666667  0.22058824  1
  Cu  Cu4389  1  0.46218487  0.58333333  0.22058824  1
  Cu  Cu4390  1  0.46218487  0.75000000  0.22058824  1
  Cu  Cu4391  1  0.46218487  0.91666667  0.22058824  1
  Cu  Cu4392  1  0.60504202  0.08333333  0.22058824  1
  Cu  Cu4393  1  0.60504202  0.25000000  0.22058824  1
  Cu  Cu4394  1  0.60504202  0.41666667  0.22058824  1
  Cu  Cu4395  1  0.60504202  0.58333333  0.22058824  1
  Cu  Cu4396  1  0.60504202  0.75000000  0.22058824  1
  Cu  Cu4397  1  0.60504202  0.91666667  0.22058824  1
  Cu  Cu4398  1  0.74789916  0.08333333  0.22058824  1
  Cu  Cu4399  1  0.74789916  0.25000000  0.22058824  1
  Cu  Cu4400  1  0.74789916  0.41666667  0.22058824  1
  Cu  Cu4401  1  0.74789916  0.58333333  0.22058824  1
  Cu  Cu4402  1  0.74789916  0.75000000  0.22058824  1
  Cu  Cu4403  1  0.74789916  0.91666667  0.22058824  1
  Cu  Cu4404  1  0.89075630  0.08333333  0.22058824  1
  Cu  Cu4405  1  0.89075630  0.25000000  0.22058824  1
  Cu  Cu4406  1  0.89075630  0.41666667  0.22058824  1
  Cu  Cu4407  1  0.89075630  0.58333333  0.22058824  1
  Cu  Cu4408  1  0.89075630  0.75000000  0.22058824  1
  Cu  Cu4409  1  0.89075630  0.91666667  0.22058824  1
  Cu  Cu4410  1  0.03361345  0.08333333  0.72058824  1
  Cu  Cu4411  1  0.03361345  0.25000000  0.72058824  1
  Cu  Cu4412  1  0.03361345  0.41666667  0.72058824  1
  Cu  Cu4413  1  0.03361345  0.58333333  0.72058824  1
  Cu  Cu4414  1  0.03361345  0.75000000  0.72058824  1
  Cu  Cu4415  1  0.03361345  0.91666667  0.72058824  1
  Cu  Cu4416  1  0.17647059  0.08333333  0.72058824  1
  Cu  Cu4417  1  0.17647059  0.25000000  0.72058824  1
  Cu  Cu4418  1  0.17647059  0.41666667  0.72058824  1
  Cu  Cu4419  1  0.17647059  0.58333333  0.72058824  1
  Cu  Cu4420  1  0.17647059  0.75000000  0.72058824  1
  Cu  Cu4421  1  0.17647059  0.91666667  0.72058824  1
  Cu  Cu4422  1  0.31932773  0.08333333  0.72058824  1
  Cu  Cu4423  1  0.31932773  0.25000000  0.72058824  1
  Cu  Cu4424  1  0.31932773  0.41666667  0.72058824  1
  Cu  Cu4425  1  0.31932773  0.58333333  0.72058824  1
  Cu  Cu4426  1  0.31932773  0.75000000  0.72058824  1
  Cu  Cu4427  1  0.31932773  0.91666667  0.72058824  1
  Cu  Cu4428  1  0.46218487  0.08333333  0.72058824  1
  Cu  Cu4429  1  0.46218487  0.25000000  0.72058824  1
  Cu  Cu4430  1  0.46218487  0.41666667  0.72058824  1
  Cu  Cu4431  1  0.46218487  0.58333333  0.72058824  1
  Cu  Cu4432  1  0.46218487  0.75000000  0.72058824  1
  Cu  Cu4433  1  0.46218487  0.91666667  0.72058824  1
  Cu  Cu4434  1  0.60504202  0.08333333  0.72058824  1
  Cu  Cu4435  1  0.60504202  0.25000000  0.72058824  1
  Cu  Cu4436  1  0.60504202  0.41666667  0.72058824  1
  Cu  Cu4437  1  0.60504202  0.58333333  0.72058824  1
  Cu  Cu4438  1  0.60504202  0.75000000  0.72058824  1
  Cu  Cu4439  1  0.60504202  0.91666667  0.72058824  1
  Cu  Cu4440  1  0.74789916  0.08333333  0.72058824  1
  Cu  Cu4441  1  0.74789916  0.25000000  0.72058824  1
  Cu  Cu4442  1  0.74789916  0.41666667  0.72058824  1
  Cu  Cu4443  1  0.74789916  0.58333333  0.72058824  1
  Cu  Cu4444  1  0.74789916  0.75000000  0.72058824  1
  Cu  Cu4445  1  0.74789916  0.91666667  0.72058824  1
  Cu  Cu4446  1  0.89075630  0.08333333  0.72058824  1
  Cu  Cu4447  1  0.89075630  0.25000000  0.72058824  1
  Cu  Cu4448  1  0.89075630  0.41666667  0.72058824  1
  Cu  Cu4449  1  0.89075630  0.58333333  0.72058824  1
  Cu  Cu4450  1  0.89075630  0.75000000  0.72058824  1
  Cu  Cu4451  1  0.89075630  0.91666667  0.72058824  1
  Cu  Cu4452  1  0.01680672  0.00000000  0.23529412  1
  Cu  Cu4453  1  0.01680672  0.16666667  0.23529412  1
  Cu  Cu4454  1  0.01680672  0.33333333  0.23529412  1
  Cu  Cu4455  1  0.01680672  0.50000000  0.23529412  1
  Cu  Cu4456  1  0.01680672  0.66666667  0.23529412  1
  Cu  Cu4457  1  0.01680672  0.83333333  0.23529412  1
  Cu  Cu4458  1  0.15966387  0.00000000  0.23529412  1
  Cu  Cu4459  1  0.15966387  0.16666667  0.23529412  1
  Cu  Cu4460  1  0.15966387  0.33333333  0.23529412  1
  Cu  Cu4461  1  0.15966387  0.50000000  0.23529412  1
  Cu  Cu4462  1  0.15966387  0.66666667  0.23529412  1
  Cu  Cu4463  1  0.15966387  0.83333333  0.23529412  1
  Cu  Cu4464  1  0.30252101  0.00000000  0.23529412  1
  Cu  Cu4465  1  0.30252101  0.16666667  0.23529412  1
  Cu  Cu4466  1  0.30252101  0.33333333  0.23529412  1
  Cu  Cu4467  1  0.30252101  0.50000000  0.23529412  1
  Cu  Cu4468  1  0.30252101  0.66666667  0.23529412  1
  Cu  Cu4469  1  0.30252101  0.83333333  0.23529412  1
  Cu  Cu4470  1  0.44537815  0.00000000  0.23529412  1
  Cu  Cu4471  1  0.44537815  0.16666667  0.23529412  1
  Cu  Cu4472  1  0.44537815  0.33333333  0.23529412  1
  Cu  Cu4473  1  0.44537815  0.50000000  0.23529412  1
  Cu  Cu4474  1  0.44537815  0.66666667  0.23529412  1
  Cu  Cu4475  1  0.44537815  0.83333333  0.23529412  1
  Cu  Cu4476  1  0.58823529  0.00000000  0.23529412  1
  Cu  Cu4477  1  0.58823529  0.16666667  0.23529412  1
  Cu  Cu4478  1  0.58823529  0.33333333  0.23529412  1
  Cu  Cu4479  1  0.58823529  0.50000000  0.23529412  1
  Cu  Cu4480  1  0.58823529  0.66666667  0.23529412  1
  Cu  Cu4481  1  0.58823529  0.83333333  0.23529412  1
  Cu  Cu4482  1  0.73109244  0.00000000  0.23529412  1
  Cu  Cu4483  1  0.73109244  0.16666667  0.23529412  1
  Cu  Cu4484  1  0.73109244  0.33333333  0.23529412  1
  Cu  Cu4485  1  0.73109244  0.50000000  0.23529412  1
  Cu  Cu4486  1  0.73109244  0.66666667  0.23529412  1
  Cu  Cu4487  1  0.73109244  0.83333333  0.23529412  1
  Cu  Cu4488  1  0.87394958  0.00000000  0.23529412  1
  Cu  Cu4489  1  0.87394958  0.16666667  0.23529412  1
  Cu  Cu4490  1  0.87394958  0.33333333  0.23529412  1
  Cu  Cu4491  1  0.87394958  0.50000000  0.23529412  1
  Cu  Cu4492  1  0.87394958  0.66666667  0.23529412  1
  Cu  Cu4493  1  0.87394958  0.83333333  0.23529412  1
  Cu  Cu4494  1  0.01680672  0.00000000  0.73529412  1
  Cu  Cu4495  1  0.01680672  0.16666667  0.73529412  1
  Cu  Cu4496  1  0.01680672  0.33333333  0.73529412  1
  Cu  Cu4497  1  0.01680672  0.50000000  0.73529412  1
  Cu  Cu4498  1  0.01680672  0.66666667  0.73529412  1
  Cu  Cu4499  1  0.01680672  0.83333333  0.73529412  1
  Cu  Cu4500  1  0.15966387  0.00000000  0.73529412  1
  Cu  Cu4501  1  0.15966387  0.16666667  0.73529412  1
  Cu  Cu4502  1  0.15966387  0.33333333  0.73529412  1
  Cu  Cu4503  1  0.15966387  0.50000000  0.73529412  1
  Cu  Cu4504  1  0.15966387  0.66666667  0.73529412  1
  Cu  Cu4505  1  0.15966387  0.83333333  0.73529412  1
  Cu  Cu4506  1  0.30252101  0.00000000  0.73529412  1
  Cu  Cu4507  1  0.30252101  0.16666667  0.73529412  1
  Cu  Cu4508  1  0.30252101  0.33333333  0.73529412  1
  Cu  Cu4509  1  0.30252101  0.50000000  0.73529412  1
  Cu  Cu4510  1  0.30252101  0.66666667  0.73529412  1
  Cu  Cu4511  1  0.30252101  0.83333333  0.73529412  1
  Cu  Cu4512  1  0.44537815  0.00000000  0.73529412  1
  Cu  Cu4513  1  0.44537815  0.16666667  0.73529412  1
  Cu  Cu4514  1  0.44537815  0.33333333  0.73529412  1
  Cu  Cu4515  1  0.44537815  0.50000000  0.73529412  1
  Cu  Cu4516  1  0.44537815  0.66666667  0.73529412  1
  Cu  Cu4517  1  0.44537815  0.83333333  0.73529412  1
  Cu  Cu4518  1  0.58823529  0.00000000  0.73529412  1
  Cu  Cu4519  1  0.58823529  0.16666667  0.73529412  1
  Cu  Cu4520  1  0.58823529  0.33333333  0.73529412  1
  Cu  Cu4521  1  0.58823529  0.50000000  0.73529412  1
  Cu  Cu4522  1  0.58823529  0.66666667  0.73529412  1
  Cu  Cu4523  1  0.58823529  0.83333333  0.73529412  1
  Cu  Cu4524  1  0.73109244  0.00000000  0.73529412  1
  Cu  Cu4525  1  0.73109244  0.16666667  0.73529412  1
  Cu  Cu4526  1  0.73109244  0.33333333  0.73529412  1
  Cu  Cu4527  1  0.73109244  0.50000000  0.73529412  1
  Cu  Cu4528  1  0.73109244  0.66666667  0.73529412  1
  Cu  Cu4529  1  0.73109244  0.83333333  0.73529412  1
  Cu  Cu4530  1  0.87394958  0.00000000  0.73529412  1
  Cu  Cu4531  1  0.87394958  0.16666667  0.73529412  1
  Cu  Cu4532  1  0.87394958  0.33333333  0.73529412  1
  Cu  Cu4533  1  0.87394958  0.50000000  0.73529412  1
  Cu  Cu4534  1  0.87394958  0.66666667  0.73529412  1
  Cu  Cu4535  1  0.87394958  0.83333333  0.73529412  1
  Cu  Cu4536  1  0.04621849  0.08333333  0.14705882  1
  Cu  Cu4537  1  0.04621849  0.25000000  0.14705882  1
  Cu  Cu4538  1  0.04621849  0.41666667  0.14705882  1
  Cu  Cu4539  1  0.04621849  0.58333333  0.14705882  1
  Cu  Cu4540  1  0.04621849  0.75000000  0.14705882  1
  Cu  Cu4541  1  0.04621849  0.91666667  0.14705882  1
  Cu  Cu4542  1  0.18907563  0.08333333  0.14705882  1
  Cu  Cu4543  1  0.18907563  0.25000000  0.14705882  1
  Cu  Cu4544  1  0.18907563  0.41666667  0.14705882  1
  Cu  Cu4545  1  0.18907563  0.58333333  0.14705882  1
  Cu  Cu4546  1  0.18907563  0.75000000  0.14705882  1
  Cu  Cu4547  1  0.18907563  0.91666667  0.14705882  1
  Cu  Cu4548  1  0.33193277  0.08333333  0.14705882  1
  Cu  Cu4549  1  0.33193277  0.25000000  0.14705882  1
  Cu  Cu4550  1  0.33193277  0.41666667  0.14705882  1
  Cu  Cu4551  1  0.33193277  0.58333333  0.14705882  1
  Cu  Cu4552  1  0.33193277  0.75000000  0.14705882  1
  Cu  Cu4553  1  0.33193277  0.91666667  0.14705882  1
  Cu  Cu4554  1  0.47478992  0.08333333  0.14705882  1
  Cu  Cu4555  1  0.47478992  0.25000000  0.14705882  1
  Cu  Cu4556  1  0.47478992  0.41666667  0.14705882  1
  Cu  Cu4557  1  0.47478992  0.58333333  0.14705882  1
  Cu  Cu4558  1  0.47478992  0.75000000  0.14705882  1
  Cu  Cu4559  1  0.47478992  0.91666667  0.14705882  1
  Cu  Cu4560  1  0.61764706  0.08333333  0.14705882  1
  Cu  Cu4561  1  0.61764706  0.25000000  0.14705882  1
  Cu  Cu4562  1  0.61764706  0.41666667  0.14705882  1
  Cu  Cu4563  1  0.61764706  0.58333333  0.14705882  1
  Cu  Cu4564  1  0.61764706  0.75000000  0.14705882  1
  Cu  Cu4565  1  0.61764706  0.91666667  0.14705882  1
  Cu  Cu4566  1  0.76050420  0.08333333  0.14705882  1
  Cu  Cu4567  1  0.76050420  0.25000000  0.14705882  1
  Cu  Cu4568  1  0.76050420  0.41666667  0.14705882  1
  Cu  Cu4569  1  0.76050420  0.58333333  0.14705882  1
  Cu  Cu4570  1  0.76050420  0.75000000  0.14705882  1
  Cu  Cu4571  1  0.76050420  0.91666667  0.14705882  1
  Cu  Cu4572  1  0.90336134  0.08333333  0.14705882  1
  Cu  Cu4573  1  0.90336134  0.25000000  0.14705882  1
  Cu  Cu4574  1  0.90336134  0.41666667  0.14705882  1
  Cu  Cu4575  1  0.90336134  0.58333333  0.14705882  1
  Cu  Cu4576  1  0.90336134  0.75000000  0.14705882  1
  Cu  Cu4577  1  0.90336134  0.91666667  0.14705882  1
  Cu  Cu4578  1  0.04621849  0.08333333  0.64705882  1
  Cu  Cu4579  1  0.04621849  0.25000000  0.64705882  1
  Cu  Cu4580  1  0.04621849  0.41666667  0.64705882  1
  Cu  Cu4581  1  0.04621849  0.58333333  0.64705882  1
  Cu  Cu4582  1  0.04621849  0.75000000  0.64705882  1
  Cu  Cu4583  1  0.04621849  0.91666667  0.64705882  1
  Cu  Cu4584  1  0.18907563  0.08333333  0.64705882  1
  Cu  Cu4585  1  0.18907563  0.25000000  0.64705882  1
  Cu  Cu4586  1  0.18907563  0.41666667  0.64705882  1
  Cu  Cu4587  1  0.18907563  0.58333333  0.64705882  1
  Cu  Cu4588  1  0.18907563  0.75000000  0.64705882  1
  Cu  Cu4589  1  0.18907563  0.91666667  0.64705882  1
  Cu  Cu4590  1  0.33193277  0.08333333  0.64705882  1
  Cu  Cu4591  1  0.33193277  0.25000000  0.64705882  1
  Cu  Cu4592  1  0.33193277  0.41666667  0.64705882  1
  Cu  Cu4593  1  0.33193277  0.58333333  0.64705882  1
  Cu  Cu4594  1  0.33193277  0.75000000  0.64705882  1
  Cu  Cu4595  1  0.33193277  0.91666667  0.64705882  1
  Cu  Cu4596  1  0.47478992  0.08333333  0.64705882  1
  Cu  Cu4597  1  0.47478992  0.25000000  0.64705882  1
  Cu  Cu4598  1  0.47478992  0.41666667  0.64705882  1
  Cu  Cu4599  1  0.47478992  0.58333333  0.64705882  1
  Cu  Cu4600  1  0.47478992  0.75000000  0.64705882  1
  Cu  Cu4601  1  0.47478992  0.91666667  0.64705882  1
  Cu  Cu4602  1  0.61764706  0.08333333  0.64705882  1
  Cu  Cu4603  1  0.61764706  0.25000000  0.64705882  1
  Cu  Cu4604  1  0.61764706  0.41666667  0.64705882  1
  Cu  Cu4605  1  0.61764706  0.58333333  0.64705882  1
  Cu  Cu4606  1  0.61764706  0.75000000  0.64705882  1
  Cu  Cu4607  1  0.61764706  0.91666667  0.64705882  1
  Cu  Cu4608  1  0.76050420  0.08333333  0.64705882  1
  Cu  Cu4609  1  0.76050420  0.25000000  0.64705882  1
  Cu  Cu4610  1  0.76050420  0.41666667  0.64705882  1
  Cu  Cu4611  1  0.76050420  0.58333333  0.64705882  1
  Cu  Cu4612  1  0.76050420  0.75000000  0.64705882  1
  Cu  Cu4613  1  0.76050420  0.91666667  0.64705882  1
  Cu  Cu4614  1  0.90336134  0.08333333  0.64705882  1
  Cu  Cu4615  1  0.90336134  0.25000000  0.64705882  1
  Cu  Cu4616  1  0.90336134  0.41666667  0.64705882  1
  Cu  Cu4617  1  0.90336134  0.58333333  0.64705882  1
  Cu  Cu4618  1  0.90336134  0.75000000  0.64705882  1
  Cu  Cu4619  1  0.90336134  0.91666667  0.64705882  1
  Cu  Cu4620  1  0.02941176  0.00000000  0.16176471  1
  Cu  Cu4621  1  0.02941176  0.16666667  0.16176471  1
  Cu  Cu4622  1  0.02941176  0.33333333  0.16176471  1
  Cu  Cu4623  1  0.02941176  0.50000000  0.16176471  1
  Cu  Cu4624  1  0.02941176  0.66666667  0.16176471  1
  Cu  Cu4625  1  0.02941176  0.83333333  0.16176471  1
  Cu  Cu4626  1  0.17226891  0.00000000  0.16176471  1
  Cu  Cu4627  1  0.17226891  0.16666667  0.16176471  1
  Cu  Cu4628  1  0.17226891  0.33333333  0.16176471  1
  Cu  Cu4629  1  0.17226891  0.50000000  0.16176471  1
  Cu  Cu4630  1  0.17226891  0.66666667  0.16176471  1
  Cu  Cu4631  1  0.17226891  0.83333333  0.16176471  1
  Cu  Cu4632  1  0.31512605  0.00000000  0.16176471  1
  Cu  Cu4633  1  0.31512605  0.16666667  0.16176471  1
  Cu  Cu4634  1  0.31512605  0.33333333  0.16176471  1
  Cu  Cu4635  1  0.31512605  0.50000000  0.16176471  1
  Cu  Cu4636  1  0.31512605  0.66666667  0.16176471  1
  Cu  Cu4637  1  0.31512605  0.83333333  0.16176471  1
  Cu  Cu4638  1  0.45798319  0.00000000  0.16176471  1
  Cu  Cu4639  1  0.45798319  0.16666667  0.16176471  1
  Cu  Cu4640  1  0.45798319  0.33333333  0.16176471  1
  Cu  Cu4641  1  0.45798319  0.50000000  0.16176471  1
  Cu  Cu4642  1  0.45798319  0.66666667  0.16176471  1
  Cu  Cu4643  1  0.45798319  0.83333333  0.16176471  1
  Cu  Cu4644  1  0.60084034  0.00000000  0.16176471  1
  Cu  Cu4645  1  0.60084034  0.16666667  0.16176471  1
  Cu  Cu4646  1  0.60084034  0.33333333  0.16176471  1
  Cu  Cu4647  1  0.60084034  0.50000000  0.16176471  1
  Cu  Cu4648  1  0.60084034  0.66666667  0.16176471  1
  Cu  Cu4649  1  0.60084034  0.83333333  0.16176471  1
  Cu  Cu4650  1  0.74369748  0.00000000  0.16176471  1
  Cu  Cu4651  1  0.74369748  0.16666667  0.16176471  1
  Cu  Cu4652  1  0.74369748  0.33333333  0.16176471  1
  Cu  Cu4653  1  0.74369748  0.50000000  0.16176471  1
  Cu  Cu4654  1  0.74369748  0.66666667  0.16176471  1
  Cu  Cu4655  1  0.74369748  0.83333333  0.16176471  1
  Cu  Cu4656  1  0.88655462  0.00000000  0.16176471  1
  Cu  Cu4657  1  0.88655462  0.16666667  0.16176471  1
  Cu  Cu4658  1  0.88655462  0.33333333  0.16176471  1
  Cu  Cu4659  1  0.88655462  0.50000000  0.16176471  1
  Cu  Cu4660  1  0.88655462  0.66666667  0.16176471  1
  Cu  Cu4661  1  0.88655462  0.83333333  0.16176471  1
  Cu  Cu4662  1  0.02941176  0.00000000  0.66176471  1
  Cu  Cu4663  1  0.02941176  0.16666667  0.66176471  1
  Cu  Cu4664  1  0.02941176  0.33333333  0.66176471  1
  Cu  Cu4665  1  0.02941176  0.50000000  0.66176471  1
  Cu  Cu4666  1  0.02941176  0.66666667  0.66176471  1
  Cu  Cu4667  1  0.02941176  0.83333333  0.66176471  1
  Cu  Cu4668  1  0.17226891  0.00000000  0.66176471  1
  Cu  Cu4669  1  0.17226891  0.16666667  0.66176471  1
  Cu  Cu4670  1  0.17226891  0.33333333  0.66176471  1
  Cu  Cu4671  1  0.17226891  0.50000000  0.66176471  1
  Cu  Cu4672  1  0.17226891  0.66666667  0.66176471  1
  Cu  Cu4673  1  0.17226891  0.83333333  0.66176471  1
  Cu  Cu4674  1  0.31512605  0.00000000  0.66176471  1
  Cu  Cu4675  1  0.31512605  0.16666667  0.66176471  1
  Cu  Cu4676  1  0.31512605  0.33333333  0.66176471  1
  Cu  Cu4677  1  0.31512605  0.50000000  0.66176471  1
  Cu  Cu4678  1  0.31512605  0.66666667  0.66176471  1
  Cu  Cu4679  1  0.31512605  0.83333333  0.66176471  1
  Cu  Cu4680  1  0.45798319  0.00000000  0.66176471  1
  Cu  Cu4681  1  0.45798319  0.16666667  0.66176471  1
  Cu  Cu4682  1  0.45798319  0.33333333  0.66176471  1
  Cu  Cu4683  1  0.45798319  0.50000000  0.66176471  1
  Cu  Cu4684  1  0.45798319  0.66666667  0.66176471  1
  Cu  Cu4685  1  0.45798319  0.83333333  0.66176471  1
  Cu  Cu4686  1  0.60084034  0.00000000  0.66176471  1
  Cu  Cu4687  1  0.60084034  0.16666667  0.66176471  1
  Cu  Cu4688  1  0.60084034  0.33333333  0.66176471  1
  Cu  Cu4689  1  0.60084034  0.50000000  0.66176471  1
  Cu  Cu4690  1  0.60084034  0.66666667  0.66176471  1
  Cu  Cu4691  1  0.60084034  0.83333333  0.66176471  1
  Cu  Cu4692  1  0.74369748  0.00000000  0.66176471  1
  Cu  Cu4693  1  0.74369748  0.16666667  0.66176471  1
  Cu  Cu4694  1  0.74369748  0.33333333  0.66176471  1
  Cu  Cu4695  1  0.74369748  0.50000000  0.66176471  1
  Cu  Cu4696  1  0.74369748  0.66666667  0.66176471  1
  Cu  Cu4697  1  0.74369748  0.83333333  0.66176471  1
  Cu  Cu4698  1  0.88655462  0.00000000  0.66176471  1
  Cu  Cu4699  1  0.88655462  0.16666667  0.66176471  1
  Cu  Cu4700  1  0.88655462  0.33333333  0.66176471  1
  Cu  Cu4701  1  0.88655462  0.50000000  0.66176471  1
  Cu  Cu4702  1  0.88655462  0.66666667  0.66176471  1
  Cu  Cu4703  1  0.88655462  0.83333333  0.66176471  1
  Cu  Cu4704  1  0.05882353  0.08333333  0.07352941  1
  Cu  Cu4705  1  0.05882353  0.25000000  0.07352941  1
  Cu  Cu4706  1  0.05882353  0.41666667  0.07352941  1
  Cu  Cu4707  1  0.05882353  0.58333333  0.07352941  1
  Cu  Cu4708  1  0.05882353  0.75000000  0.07352941  1
  Cu  Cu4709  1  0.05882353  0.91666667  0.07352941  1
  Cu  Cu4710  1  0.20168067  0.08333333  0.07352941  1
  Cu  Cu4711  1  0.20168067  0.25000000  0.07352941  1
  Cu  Cu4712  1  0.20168067  0.41666667  0.07352941  1
  Cu  Cu4713  1  0.20168067  0.58333333  0.07352941  1
  Cu  Cu4714  1  0.20168067  0.75000000  0.07352941  1
  Cu  Cu4715  1  0.20168067  0.91666667  0.07352941  1
  Cu  Cu4716  1  0.34453782  0.08333333  0.07352941  1
  Cu  Cu4717  1  0.34453782  0.25000000  0.07352941  1
  Cu  Cu4718  1  0.34453782  0.41666667  0.07352941  1
  Cu  Cu4719  1  0.34453782  0.58333333  0.07352941  1
  Cu  Cu4720  1  0.34453782  0.75000000  0.07352941  1
  Cu  Cu4721  1  0.34453782  0.91666667  0.07352941  1
  Cu  Cu4722  1  0.48739496  0.08333333  0.07352941  1
  Cu  Cu4723  1  0.48739496  0.25000000  0.07352941  1
  Cu  Cu4724  1  0.48739496  0.41666667  0.07352941  1
  Cu  Cu4725  1  0.48739496  0.58333333  0.07352941  1
  Cu  Cu4726  1  0.48739496  0.75000000  0.07352941  1
  Cu  Cu4727  1  0.48739496  0.91666667  0.07352941  1
  Cu  Cu4728  1  0.63025210  0.08333333  0.07352941  1
  Cu  Cu4729  1  0.63025210  0.25000000  0.07352941  1
  Cu  Cu4730  1  0.63025210  0.41666667  0.07352941  1
  Cu  Cu4731  1  0.63025210  0.58333333  0.07352941  1
  Cu  Cu4732  1  0.63025210  0.75000000  0.07352941  1
  Cu  Cu4733  1  0.63025210  0.91666667  0.07352941  1
  Cu  Cu4734  1  0.77310924  0.08333333  0.07352941  1
  Cu  Cu4735  1  0.77310924  0.25000000  0.07352941  1
  Cu  Cu4736  1  0.77310924  0.41666667  0.07352941  1
  Cu  Cu4737  1  0.77310924  0.58333333  0.07352941  1
  Cu  Cu4738  1  0.77310924  0.75000000  0.07352941  1
  Cu  Cu4739  1  0.77310924  0.91666667  0.07352941  1
  Cu  Cu4740  1  0.91596639  0.08333333  0.07352941  1
  Cu  Cu4741  1  0.91596639  0.25000000  0.07352941  1
  Cu  Cu4742  1  0.91596639  0.41666667  0.07352941  1
  Cu  Cu4743  1  0.91596639  0.58333333  0.07352941  1
  Cu  Cu4744  1  0.91596639  0.75000000  0.07352941  1
  Cu  Cu4745  1  0.91596639  0.91666667  0.07352941  1
  Cu  Cu4746  1  0.05882353  0.08333333  0.57352941  1
  Cu  Cu4747  1  0.05882353  0.25000000  0.57352941  1
  Cu  Cu4748  1  0.05882353  0.41666667  0.57352941  1
  Cu  Cu4749  1  0.05882353  0.58333333  0.57352941  1
  Cu  Cu4750  1  0.05882353  0.75000000  0.57352941  1
  Cu  Cu4751  1  0.05882353  0.91666667  0.57352941  1
  Cu  Cu4752  1  0.20168067  0.08333333  0.57352941  1
  Cu  Cu4753  1  0.20168067  0.25000000  0.57352941  1
  Cu  Cu4754  1  0.20168067  0.41666667  0.57352941  1
  Cu  Cu4755  1  0.20168067  0.58333333  0.57352941  1
  Cu  Cu4756  1  0.20168067  0.75000000  0.57352941  1
  Cu  Cu4757  1  0.20168067  0.91666667  0.57352941  1
  Cu  Cu4758  1  0.34453782  0.08333333  0.57352941  1
  Cu  Cu4759  1  0.34453782  0.25000000  0.57352941  1
  Cu  Cu4760  1  0.34453782  0.41666667  0.57352941  1
  Cu  Cu4761  1  0.34453782  0.58333333  0.57352941  1
  Cu  Cu4762  1  0.34453782  0.75000000  0.57352941  1
  Cu  Cu4763  1  0.34453782  0.91666667  0.57352941  1
  Cu  Cu4764  1  0.48739496  0.08333333  0.57352941  1
  Cu  Cu4765  1  0.48739496  0.25000000  0.57352941  1
  Cu  Cu4766  1  0.48739496  0.41666667  0.57352941  1
  Cu  Cu4767  1  0.48739496  0.58333333  0.57352941  1
  Cu  Cu4768  1  0.48739496  0.75000000  0.57352941  1
  Cu  Cu4769  1  0.48739496  0.91666667  0.57352941  1
  Cu  Cu4770  1  0.63025210  0.08333333  0.57352941  1
  Cu  Cu4771  1  0.63025210  0.25000000  0.57352941  1
  Cu  Cu4772  1  0.63025210  0.41666667  0.57352941  1
  Cu  Cu4773  1  0.63025210  0.58333333  0.57352941  1
  Cu  Cu4774  1  0.63025210  0.75000000  0.57352941  1
  Cu  Cu4775  1  0.63025210  0.91666667  0.57352941  1
  Cu  Cu4776  1  0.77310924  0.08333333  0.57352941  1
  Cu  Cu4777  1  0.77310924  0.25000000  0.57352941  1
  Cu  Cu4778  1  0.77310924  0.41666667  0.57352941  1
  Cu  Cu4779  1  0.77310924  0.58333333  0.57352941  1
  Cu  Cu4780  1  0.77310924  0.75000000  0.57352941  1
  Cu  Cu4781  1  0.77310924  0.91666667  0.57352941  1
  Cu  Cu4782  1  0.91596639  0.08333333  0.57352941  1
  Cu  Cu4783  1  0.91596639  0.25000000  0.57352941  1
  Cu  Cu4784  1  0.91596639  0.41666667  0.57352941  1
  Cu  Cu4785  1  0.91596639  0.58333333  0.57352941  1
  Cu  Cu4786  1  0.91596639  0.75000000  0.57352941  1
  Cu  Cu4787  1  0.91596639  0.91666667  0.57352941  1
  Cu  Cu4788  1  0.04201681  0.00000000  0.08823529  1
  Cu  Cu4789  1  0.04201681  0.16666667  0.08823529  1
  Cu  Cu4790  1  0.04201681  0.33333333  0.08823529  1
  Cu  Cu4791  1  0.04201681  0.50000000  0.08823529  1
  Cu  Cu4792  1  0.04201681  0.66666667  0.08823529  1
  Cu  Cu4793  1  0.04201681  0.83333333  0.08823529  1
  Cu  Cu4794  1  0.18487395  0.00000000  0.08823529  1
  Cu  Cu4795  1  0.18487395  0.16666667  0.08823529  1
  Cu  Cu4796  1  0.18487395  0.33333333  0.08823529  1
  Cu  Cu4797  1  0.18487395  0.50000000  0.08823529  1
  Cu  Cu4798  1  0.18487395  0.66666667  0.08823529  1
  Cu  Cu4799  1  0.18487395  0.83333333  0.08823529  1
  Cu  Cu4800  1  0.32773109  0.00000000  0.08823529  1
  Cu  Cu4801  1  0.32773109  0.16666667  0.08823529  1
  Cu  Cu4802  1  0.32773109  0.33333333  0.08823529  1
  Cu  Cu4803  1  0.32773109  0.50000000  0.08823529  1
  Cu  Cu4804  1  0.32773109  0.66666667  0.08823529  1
  Cu  Cu4805  1  0.32773109  0.83333333  0.08823529  1
  Cu  Cu4806  1  0.47058824  0.00000000  0.08823529  1
  Cu  Cu4807  1  0.47058824  0.16666667  0.08823529  1
  Cu  Cu4808  1  0.47058824  0.33333333  0.08823529  1
  Cu  Cu4809  1  0.47058824  0.50000000  0.08823529  1
  Cu  Cu4810  1  0.47058824  0.66666667  0.08823529  1
  Cu  Cu4811  1  0.47058824  0.83333333  0.08823529  1
  Cu  Cu4812  1  0.61344538  0.00000000  0.08823529  1
  Cu  Cu4813  1  0.61344538  0.16666667  0.08823529  1
  Cu  Cu4814  1  0.61344538  0.33333333  0.08823529  1
  Cu  Cu4815  1  0.61344538  0.50000000  0.08823529  1
  Cu  Cu4816  1  0.61344538  0.66666667  0.08823529  1
  Cu  Cu4817  1  0.61344538  0.83333333  0.08823529  1
  Cu  Cu4818  1  0.75630252  0.00000000  0.08823529  1
  Cu  Cu4819  1  0.75630252  0.16666667  0.08823529  1
  Cu  Cu4820  1  0.75630252  0.33333333  0.08823529  1
  Cu  Cu4821  1  0.75630252  0.50000000  0.08823529  1
  Cu  Cu4822  1  0.75630252  0.66666667  0.08823529  1
  Cu  Cu4823  1  0.75630252  0.83333333  0.08823529  1
  Cu  Cu4824  1  0.89915966  0.00000000  0.08823529  1
  Cu  Cu4825  1  0.89915966  0.16666667  0.08823529  1
  Cu  Cu4826  1  0.89915966  0.33333333  0.08823529  1
  Cu  Cu4827  1  0.89915966  0.50000000  0.08823529  1
  Cu  Cu4828  1  0.89915966  0.66666667  0.08823529  1
  Cu  Cu4829  1  0.89915966  0.83333333  0.08823529  1
  Cu  Cu4830  1  0.04201681  0.00000000  0.58823529  1
  Cu  Cu4831  1  0.04201681  0.16666667  0.58823529  1
  Cu  Cu4832  1  0.04201681  0.33333333  0.58823529  1
  Cu  Cu4833  1  0.04201681  0.50000000  0.58823529  1
  Cu  Cu4834  1  0.04201681  0.66666667  0.58823529  1
  Cu  Cu4835  1  0.04201681  0.83333333  0.58823529  1
  Cu  Cu4836  1  0.18487395  0.00000000  0.58823529  1
  Cu  Cu4837  1  0.18487395  0.16666667  0.58823529  1
  Cu  Cu4838  1  0.18487395  0.33333333  0.58823529  1
  Cu  Cu4839  1  0.18487395  0.50000000  0.58823529  1
  Cu  Cu4840  1  0.18487395  0.66666667  0.58823529  1
  Cu  Cu4841  1  0.18487395  0.83333333  0.58823529  1
  Cu  Cu4842  1  0.32773109  0.00000000  0.58823529  1
  Cu  Cu4843  1  0.32773109  0.16666667  0.58823529  1
  Cu  Cu4844  1  0.32773109  0.33333333  0.58823529  1
  Cu  Cu4845  1  0.32773109  0.50000000  0.58823529  1
  Cu  Cu4846  1  0.32773109  0.66666667  0.58823529  1
  Cu  Cu4847  1  0.32773109  0.83333333  0.58823529  1
  Cu  Cu4848  1  0.47058824  0.00000000  0.58823529  1
  Cu  Cu4849  1  0.47058824  0.16666667  0.58823529  1
  Cu  Cu4850  1  0.47058824  0.33333333  0.58823529  1
  Cu  Cu4851  1  0.47058824  0.50000000  0.58823529  1
  Cu  Cu4852  1  0.47058824  0.66666667  0.58823529  1
  Cu  Cu4853  1  0.47058824  0.83333333  0.58823529  1
  Cu  Cu4854  1  0.61344538  0.00000000  0.58823529  1
  Cu  Cu4855  1  0.61344538  0.16666667  0.58823529  1
  Cu  Cu4856  1  0.61344538  0.33333333  0.58823529  1
  Cu  Cu4857  1  0.61344538  0.50000000  0.58823529  1
  Cu  Cu4858  1  0.61344538  0.66666667  0.58823529  1
  Cu  Cu4859  1  0.61344538  0.83333333  0.58823529  1
  Cu  Cu4860  1  0.75630252  0.00000000  0.58823529  1
  Cu  Cu4861  1  0.75630252  0.16666667  0.58823529  1
  Cu  Cu4862  1  0.75630252  0.33333333  0.58823529  1
  Cu  Cu4863  1  0.75630252  0.50000000  0.58823529  1
  Cu  Cu4864  1  0.75630252  0.66666667  0.58823529  1
  Cu  Cu4865  1  0.75630252  0.83333333  0.58823529  1
  Cu  Cu4866  1  0.89915966  0.00000000  0.58823529  1
  Cu  Cu4867  1  0.89915966  0.16666667  0.58823529  1
  Cu  Cu4868  1  0.89915966  0.33333333  0.58823529  1
  Cu  Cu4869  1  0.89915966  0.50000000  0.58823529  1
  Cu  Cu4870  1  0.89915966  0.66666667  0.58823529  1
  Cu  Cu4871  1  0.89915966  0.83333333  0.58823529  1
  Cu  Cu4872  1  0.07142857  0.08333333  0.00000000  1
  Cu  Cu4873  1  0.07142857  0.25000000  0.00000000  1
  Cu  Cu4874  1  0.07142857  0.41666667  0.00000000  1
  Cu  Cu4875  1  0.07142857  0.58333333  0.00000000  1
  Cu  Cu4876  1  0.07142857  0.75000000  0.00000000  1
  Cu  Cu4877  1  0.07142857  0.91666667  0.00000000  1
  Cu  Cu4878  1  0.21428571  0.08333333  0.00000000  1
  Cu  Cu4879  1  0.21428571  0.25000000  0.00000000  1
  Cu  Cu4880  1  0.21428571  0.41666667  0.00000000  1
  Cu  Cu4881  1  0.21428571  0.58333333  0.00000000  1
  Cu  Cu4882  1  0.21428571  0.75000000  0.00000000  1
  Cu  Cu4883  1  0.21428571  0.91666667  0.00000000  1
  Cu  Cu4884  1  0.35714286  0.08333333  0.00000000  1
  Cu  Cu4885  1  0.35714286  0.25000000  0.00000000  1
  Cu  Cu4886  1  0.35714286  0.41666667  0.00000000  1
  Cu  Cu4887  1  0.35714286  0.58333333  0.00000000  1
  Cu  Cu4888  1  0.35714286  0.75000000  0.00000000  1
  Cu  Cu4889  1  0.35714286  0.91666667  0.00000000  1
  Cu  Cu4890  1  0.50000000  0.08333333  0.00000000  1
  Cu  Cu4891  1  0.50000000  0.25000000  0.00000000  1
  Cu  Cu4892  1  0.50000000  0.41666667  0.00000000  1
  Cu  Cu4893  1  0.50000000  0.58333333  0.00000000  1
  Cu  Cu4894  1  0.50000000  0.75000000  0.00000000  1
  Cu  Cu4895  1  0.50000000  0.91666667  0.00000000  1
  Cu  Cu4896  1  0.64285714  0.08333333  0.00000000  1
  Cu  Cu4897  1  0.64285714  0.25000000  0.00000000  1
  Cu  Cu4898  1  0.64285714  0.41666667  0.00000000  1
  Cu  Cu4899  1  0.64285714  0.58333333  0.00000000  1
  Cu  Cu4900  1  0.64285714  0.75000000  0.00000000  1
  Cu  Cu4901  1  0.64285714  0.91666667  0.00000000  1
  Cu  Cu4902  1  0.78571429  0.08333333  0.00000000  1
  Cu  Cu4903  1  0.78571429  0.25000000  0.00000000  1
  Cu  Cu4904  1  0.78571429  0.41666667  0.00000000  1
  Cu  Cu4905  1  0.78571429  0.58333333  0.00000000  1
  Cu  Cu4906  1  0.78571429  0.75000000  0.00000000  1
  Cu  Cu4907  1  0.78571429  0.91666667  0.00000000  1
  Cu  Cu4908  1  0.92857143  0.08333333  0.00000000  1
  Cu  Cu4909  1  0.92857143  0.25000000  0.00000000  1
  Cu  Cu4910  1  0.92857143  0.41666667  0.00000000  1
  Cu  Cu4911  1  0.92857143  0.58333333  0.00000000  1
  Cu  Cu4912  1  0.92857143  0.75000000  0.00000000  1
  Cu  Cu4913  1  0.92857143  0.91666667  0.00000000  1
  Cu  Cu4914  1  0.07142857  0.08333333  0.50000000  1
  Cu  Cu4915  1  0.07142857  0.25000000  0.50000000  1
  Cu  Cu4916  1  0.07142857  0.41666667  0.50000000  1
  Cu  Cu4917  1  0.07142857  0.58333333  0.50000000  1
  Cu  Cu4918  1  0.07142857  0.75000000  0.50000000  1
  Cu  Cu4919  1  0.07142857  0.91666667  0.50000000  1
  Cu  Cu4920  1  0.21428571  0.08333333  0.50000000  1
  Cu  Cu4921  1  0.21428571  0.25000000  0.50000000  1
  Cu  Cu4922  1  0.21428571  0.41666667  0.50000000  1
  Cu  Cu4923  1  0.21428571  0.58333333  0.50000000  1
  Cu  Cu4924  1  0.21428571  0.75000000  0.50000000  1
  Cu  Cu4925  1  0.21428571  0.91666667  0.50000000  1
  Cu  Cu4926  1  0.35714286  0.08333333  0.50000000  1
  Cu  Cu4927  1  0.35714286  0.25000000  0.50000000  1
  Cu  Cu4928  1  0.35714286  0.41666667  0.50000000  1
  Cu  Cu4929  1  0.35714286  0.58333333  0.50000000  1
  Cu  Cu4930  1  0.35714286  0.75000000  0.50000000  1
  Cu  Cu4931  1  0.35714286  0.91666667  0.50000000  1
  Cu  Cu4932  1  0.50000000  0.08333333  0.50000000  1
  Cu  Cu4933  1  0.50000000  0.25000000  0.50000000  1
  Cu  Cu4934  1  0.50000000  0.41666667  0.50000000  1
  Cu  Cu4935  1  0.50000000  0.58333333  0.50000000  1
  Cu  Cu4936  1  0.50000000  0.75000000  0.50000000  1
  Cu  Cu4937  1  0.50000000  0.91666667  0.50000000  1
  Cu  Cu4938  1  0.64285714  0.08333333  0.50000000  1
  Cu  Cu4939  1  0.64285714  0.25000000  0.50000000  1
  Cu  Cu4940  1  0.64285714  0.41666667  0.50000000  1
  Cu  Cu4941  1  0.64285714  0.58333333  0.50000000  1
  Cu  Cu4942  1  0.64285714  0.75000000  0.50000000  1
  Cu  Cu4943  1  0.64285714  0.91666667  0.50000000  1
  Cu  Cu4944  1  0.78571429  0.08333333  0.50000000  1
  Cu  Cu4945  1  0.78571429  0.25000000  0.50000000  1
  Cu  Cu4946  1  0.78571429  0.41666667  0.50000000  1
  Cu  Cu4947  1  0.78571429  0.58333333  0.50000000  1
  Cu  Cu4948  1  0.78571429  0.75000000  0.50000000  1
  Cu  Cu4949  1  0.78571429  0.91666667  0.50000000  1
  Cu  Cu4950  1  0.92857143  0.08333333  0.50000000  1
  Cu  Cu4951  1  0.92857143  0.25000000  0.50000000  1
  Cu  Cu4952  1  0.92857143  0.41666667  0.50000000  1
  Cu  Cu4953  1  0.92857143  0.58333333  0.50000000  1
  Cu  Cu4954  1  0.92857143  0.75000000  0.50000000  1
  Cu  Cu4955  1  0.92857143  0.91666667  0.50000000  1
  Cu  Cu4956  1  0.05462185  0.00000000  0.01470588  1
  Cu  Cu4957  1  0.05462185  0.16666667  0.01470588  1
  Cu  Cu4958  1  0.05462185  0.33333333  0.01470588  1
  Cu  Cu4959  1  0.05462185  0.50000000  0.01470588  1
  Cu  Cu4960  1  0.05462185  0.66666667  0.01470588  1
  Cu  Cu4961  1  0.05462185  0.83333333  0.01470588  1
  Cu  Cu4962  1  0.19747899  0.00000000  0.01470588  1
  Cu  Cu4963  1  0.19747899  0.16666667  0.01470588  1
  Cu  Cu4964  1  0.19747899  0.33333333  0.01470588  1
  Cu  Cu4965  1  0.19747899  0.50000000  0.01470588  1
  Cu  Cu4966  1  0.19747899  0.66666667  0.01470588  1
  Cu  Cu4967  1  0.19747899  0.83333333  0.01470588  1
  Cu  Cu4968  1  0.34033613  0.00000000  0.01470588  1
  Cu  Cu4969  1  0.34033613  0.16666667  0.01470588  1
  Cu  Cu4970  1  0.34033613  0.33333333  0.01470588  1
  Cu  Cu4971  1  0.34033613  0.50000000  0.01470588  1
  Cu  Cu4972  1  0.34033613  0.66666667  0.01470588  1
  Cu  Cu4973  1  0.34033613  0.83333333  0.01470588  1
  Cu  Cu4974  1  0.48319328  0.00000000  0.01470588  1
  Cu  Cu4975  1  0.48319328  0.16666667  0.01470588  1
  Cu  Cu4976  1  0.48319328  0.33333333  0.01470588  1
  Cu  Cu4977  1  0.48319328  0.50000000  0.01470588  1
  Cu  Cu4978  1  0.48319328  0.66666667  0.01470588  1
  Cu  Cu4979  1  0.48319328  0.83333333  0.01470588  1
  Cu  Cu4980  1  0.62605042  0.00000000  0.01470588  1
  Cu  Cu4981  1  0.62605042  0.16666667  0.01470588  1
  Cu  Cu4982  1  0.62605042  0.33333333  0.01470588  1
  Cu  Cu4983  1  0.62605042  0.50000000  0.01470588  1
  Cu  Cu4984  1  0.62605042  0.66666667  0.01470588  1
  Cu  Cu4985  1  0.62605042  0.83333333  0.01470588  1
  Cu  Cu4986  1  0.76890756  0.00000000  0.01470588  1
  Cu  Cu4987  1  0.76890756  0.16666667  0.01470588  1
  Cu  Cu4988  1  0.76890756  0.33333333  0.01470588  1
  Cu  Cu4989  1  0.76890756  0.50000000  0.01470588  1
  Cu  Cu4990  1  0.76890756  0.66666667  0.01470588  1
  Cu  Cu4991  1  0.76890756  0.83333333  0.01470588  1
  Cu  Cu4992  1  0.91176471  0.00000000  0.01470588  1
  Cu  Cu4993  1  0.91176471  0.16666667  0.01470588  1
  Cu  Cu4994  1  0.91176471  0.33333333  0.01470588  1
  Cu  Cu4995  1  0.91176471  0.50000000  0.01470588  1
  Cu  Cu4996  1  0.91176471  0.66666667  0.01470588  1
  Cu  Cu4997  1  0.91176471  0.83333333  0.01470588  1
  Cu  Cu4998  1  0.05462185  0.00000000  0.51470588  1
  Cu  Cu4999  1  0.05462185  0.16666667  0.51470588  1
  Cu  Cu5000  1  0.05462185  0.33333333  0.51470588  1
  Cu  Cu5001  1  0.05462185  0.50000000  0.51470588  1
  Cu  Cu5002  1  0.05462185  0.66666667  0.51470588  1
  Cu  Cu5003  1  0.05462185  0.83333333  0.51470588  1
  Cu  Cu5004  1  0.19747899  0.00000000  0.51470588  1
  Cu  Cu5005  1  0.19747899  0.16666667  0.51470588  1
  Cu  Cu5006  1  0.19747899  0.33333333  0.51470588  1
  Cu  Cu5007  1  0.19747899  0.50000000  0.51470588  1
  Cu  Cu5008  1  0.19747899  0.66666667  0.51470588  1
  Cu  Cu5009  1  0.19747899  0.83333333  0.51470588  1
  Cu  Cu5010  1  0.34033613  0.00000000  0.51470588  1
  Cu  Cu5011  1  0.34033613  0.16666667  0.51470588  1
  Cu  Cu5012  1  0.34033613  0.33333333  0.51470588  1
  Cu  Cu5013  1  0.34033613  0.50000000  0.51470588  1
  Cu  Cu5014  1  0.34033613  0.66666667  0.51470588  1
  Cu  Cu5015  1  0.34033613  0.83333333  0.51470588  1
  Cu  Cu5016  1  0.48319328  0.00000000  0.51470588  1
  Cu  Cu5017  1  0.48319328  0.16666667  0.51470588  1
  Cu  Cu5018  1  0.48319328  0.33333333  0.51470588  1
  Cu  Cu5019  1  0.48319328  0.50000000  0.51470588  1
  Cu  Cu5020  1  0.48319328  0.66666667  0.51470588  1
  Cu  Cu5021  1  0.48319328  0.83333333  0.51470588  1
  Cu  Cu5022  1  0.62605042  0.00000000  0.51470588  1
  Cu  Cu5023  1  0.62605042  0.16666667  0.51470588  1
  Cu  Cu5024  1  0.62605042  0.33333333  0.51470588  1
  Cu  Cu5025  1  0.62605042  0.50000000  0.51470588  1
  Cu  Cu5026  1  0.62605042  0.66666667  0.51470588  1
  Cu  Cu5027  1  0.62605042  0.83333333  0.51470588  1
  Cu  Cu5028  1  0.76890756  0.00000000  0.51470588  1
  Cu  Cu5029  1  0.76890756  0.16666667  0.51470588  1
  Cu  Cu5030  1  0.76890756  0.33333333  0.51470588  1
  Cu  Cu5031  1  0.76890756  0.50000000  0.51470588  1
  Cu  Cu5032  1  0.76890756  0.66666667  0.51470588  1
  Cu  Cu5033  1  0.76890756  0.83333333  0.51470588  1
  Cu  Cu5034  1  0.91176471  0.00000000  0.51470588  1
  Cu  Cu5035  1  0.91176471  0.16666667  0.51470588  1
  Cu  Cu5036  1  0.91176471  0.33333333  0.51470588  1
  Cu  Cu5037  1  0.91176471  0.50000000  0.51470588  1
  Cu  Cu5038  1  0.91176471  0.66666667  0.51470588  1
  Cu  Cu5039  1  0.91176471  0.83333333  0.51470588  1
  Cu  Cu5040  1  0.00000000  0.08333333  0.25000000  1
  Cu  Cu5041  1  0.00000000  0.25000000  0.25000000  1
  Cu  Cu5042  1  0.00000000  0.41666667  0.25000000  1
  Cu  Cu5043  1  0.00000000  0.58333333  0.25000000  1
  Cu  Cu5044  1  0.00000000  0.75000000  0.25000000  1
  Cu  Cu5045  1  0.00000000  0.91666667  0.25000000  1
  Cu  Cu5046  1  0.14285714  0.08333333  0.25000000  1
  Cu  Cu5047  1  0.14285714  0.25000000  0.25000000  1
  Cu  Cu5048  1  0.14285714  0.41666667  0.25000000  1
  Cu  Cu5049  1  0.14285714  0.58333333  0.25000000  1
  Cu  Cu5050  1  0.14285714  0.75000000  0.25000000  1
  Cu  Cu5051  1  0.14285714  0.91666667  0.25000000  1
  Cu  Cu5052  1  0.28571429  0.08333333  0.25000000  1
  Cu  Cu5053  1  0.28571429  0.25000000  0.25000000  1
  Cu  Cu5054  1  0.28571429  0.41666667  0.25000000  1
  Cu  Cu5055  1  0.28571429  0.58333333  0.25000000  1
  Cu  Cu5056  1  0.28571429  0.75000000  0.25000000  1
  Cu  Cu5057  1  0.28571429  0.91666667  0.25000000  1
  Cu  Cu5058  1  0.42857143  0.08333333  0.25000000  1
  Cu  Cu5059  1  0.42857143  0.25000000  0.25000000  1
  Cu  Cu5060  1  0.42857143  0.41666667  0.25000000  1
  Cu  Cu5061  1  0.42857143  0.58333333  0.25000000  1
  Cu  Cu5062  1  0.42857143  0.75000000  0.25000000  1
  Cu  Cu5063  1  0.42857143  0.91666667  0.25000000  1
  Cu  Cu5064  1  0.57142857  0.08333333  0.25000000  1
  Cu  Cu5065  1  0.57142857  0.25000000  0.25000000  1
  Cu  Cu5066  1  0.57142857  0.41666667  0.25000000  1
  Cu  Cu5067  1  0.57142857  0.58333333  0.25000000  1
  Cu  Cu5068  1  0.57142857  0.75000000  0.25000000  1
  Cu  Cu5069  1  0.57142857  0.91666667  0.25000000  1
  Cu  Cu5070  1  0.71428571  0.08333333  0.25000000  1
  Cu  Cu5071  1  0.71428571  0.25000000  0.25000000  1
  Cu  Cu5072  1  0.71428571  0.41666667  0.25000000  1
  Cu  Cu5073  1  0.71428571  0.58333333  0.25000000  1
  Cu  Cu5074  1  0.71428571  0.75000000  0.25000000  1
  Cu  Cu5075  1  0.71428571  0.91666667  0.25000000  1
  Cu  Cu5076  1  0.85714286  0.08333333  0.25000000  1
  Cu  Cu5077  1  0.85714286  0.25000000  0.25000000  1
  Cu  Cu5078  1  0.85714286  0.41666667  0.25000000  1
  Cu  Cu5079  1  0.85714286  0.58333333  0.25000000  1
  Cu  Cu5080  1  0.85714286  0.75000000  0.25000000  1
  Cu  Cu5081  1  0.85714286  0.91666667  0.25000000  1
  Cu  Cu5082  1  0.00000000  0.08333333  0.75000000  1
  Cu  Cu5083  1  0.00000000  0.25000000  0.75000000  1
  Cu  Cu5084  1  0.00000000  0.41666667  0.75000000  1
  Cu  Cu5085  1  0.00000000  0.58333333  0.75000000  1
  Cu  Cu5086  1  0.00000000  0.75000000  0.75000000  1
  Cu  Cu5087  1  0.00000000  0.91666667  0.75000000  1
  Cu  Cu5088  1  0.14285714  0.08333333  0.75000000  1
  Cu  Cu5089  1  0.14285714  0.25000000  0.75000000  1
  Cu  Cu5090  1  0.14285714  0.41666667  0.75000000  1
  Cu  Cu5091  1  0.14285714  0.58333333  0.75000000  1
  Cu  Cu5092  1  0.14285714  0.75000000  0.75000000  1
  Cu  Cu5093  1  0.14285714  0.91666667  0.75000000  1
  Cu  Cu5094  1  0.28571429  0.08333333  0.75000000  1
  Cu  Cu5095  1  0.28571429  0.25000000  0.75000000  1
  Cu  Cu5096  1  0.28571429  0.41666667  0.75000000  1
  Cu  Cu5097  1  0.28571429  0.58333333  0.75000000  1
  Cu  Cu5098  1  0.28571429  0.75000000  0.75000000  1
  Cu  Cu5099  1  0.28571429  0.91666667  0.75000000  1
  Cu  Cu5100  1  0.42857143  0.08333333  0.75000000  1
  Cu  Cu5101  1  0.42857143  0.25000000  0.75000000  1
  Cu  Cu5102  1  0.42857143  0.41666667  0.75000000  1
  Cu  Cu5103  1  0.42857143  0.58333333  0.75000000  1
  Cu  Cu5104  1  0.42857143  0.75000000  0.75000000  1
  Cu  Cu5105  1  0.42857143  0.91666667  0.75000000  1
  Cu  Cu5106  1  0.57142857  0.08333333  0.75000000  1
  Cu  Cu5107  1  0.57142857  0.25000000  0.75000000  1
  Cu  Cu5108  1  0.57142857  0.41666667  0.75000000  1
  Cu  Cu5109  1  0.57142857  0.58333333  0.75000000  1
  Cu  Cu5110  1  0.57142857  0.75000000  0.75000000  1
  Cu  Cu5111  1  0.57142857  0.91666667  0.75000000  1
  Cu  Cu5112  1  0.71428571  0.08333333  0.75000000  1
  Cu  Cu5113  1  0.71428571  0.25000000  0.75000000  1
  Cu  Cu5114  1  0.71428571  0.41666667  0.75000000  1
  Cu  Cu5115  1  0.71428571  0.58333333  0.75000000  1
  Cu  Cu5116  1  0.71428571  0.75000000  0.75000000  1
  Cu  Cu5117  1  0.71428571  0.91666667  0.75000000  1
  Cu  Cu5118  1  0.85714286  0.08333333  0.75000000  1
  Cu  Cu5119  1  0.85714286  0.25000000  0.75000000  1
  Cu  Cu5120  1  0.85714286  0.41666667  0.75000000  1
  Cu  Cu5121  1  0.85714286  0.58333333  0.75000000  1
  Cu  Cu5122  1  0.85714286  0.75000000  0.75000000  1
  Cu  Cu5123  1  0.85714286  0.91666667  0.75000000  1
  Cu  Cu5124  1  0.01260504  0.08333333  0.17647059  1
  Cu  Cu5125  1  0.01260504  0.25000000  0.17647059  1
  Cu  Cu5126  1  0.01260504  0.41666667  0.17647059  1
  Cu  Cu5127  1  0.01260504  0.58333333  0.17647059  1
  Cu  Cu5128  1  0.01260504  0.75000000  0.17647059  1
  Cu  Cu5129  1  0.01260504  0.91666667  0.17647059  1
  Cu  Cu5130  1  0.15546218  0.08333333  0.17647059  1
  Cu  Cu5131  1  0.15546218  0.25000000  0.17647059  1
  Cu  Cu5132  1  0.15546218  0.41666667  0.17647059  1
  Cu  Cu5133  1  0.15546218  0.58333333  0.17647059  1
  Cu  Cu5134  1  0.15546218  0.75000000  0.17647059  1
  Cu  Cu5135  1  0.15546218  0.91666667  0.17647059  1
  Cu  Cu5136  1  0.29831933  0.08333333  0.17647059  1
  Cu  Cu5137  1  0.29831933  0.25000000  0.17647059  1
  Cu  Cu5138  1  0.29831933  0.41666667  0.17647059  1
  Cu  Cu5139  1  0.29831933  0.58333333  0.17647059  1
  Cu  Cu5140  1  0.29831933  0.75000000  0.17647059  1
  Cu  Cu5141  1  0.29831933  0.91666667  0.17647059  1
  Cu  Cu5142  1  0.44117647  0.08333333  0.17647059  1
  Cu  Cu5143  1  0.44117647  0.25000000  0.17647059  1
  Cu  Cu5144  1  0.44117647  0.41666667  0.17647059  1
  Cu  Cu5145  1  0.44117647  0.58333333  0.17647059  1
  Cu  Cu5146  1  0.44117647  0.75000000  0.17647059  1
  Cu  Cu5147  1  0.44117647  0.91666667  0.17647059  1
  Cu  Cu5148  1  0.58403361  0.08333333  0.17647059  1
  Cu  Cu5149  1  0.58403361  0.25000000  0.17647059  1
  Cu  Cu5150  1  0.58403361  0.41666667  0.17647059  1
  Cu  Cu5151  1  0.58403361  0.58333333  0.17647059  1
  Cu  Cu5152  1  0.58403361  0.75000000  0.17647059  1
  Cu  Cu5153  1  0.58403361  0.91666667  0.17647059  1
  Cu  Cu5154  1  0.72689076  0.08333333  0.17647059  1
  Cu  Cu5155  1  0.72689076  0.25000000  0.17647059  1
  Cu  Cu5156  1  0.72689076  0.41666667  0.17647059  1
  Cu  Cu5157  1  0.72689076  0.58333333  0.17647059  1
  Cu  Cu5158  1  0.72689076  0.75000000  0.17647059  1
  Cu  Cu5159  1  0.72689076  0.91666667  0.17647059  1
  Cu  Cu5160  1  0.86974790  0.08333333  0.17647059  1
  Cu  Cu5161  1  0.86974790  0.25000000  0.17647059  1
  Cu  Cu5162  1  0.86974790  0.41666667  0.17647059  1
  Cu  Cu5163  1  0.86974790  0.58333333  0.17647059  1
  Cu  Cu5164  1  0.86974790  0.75000000  0.17647059  1
  Cu  Cu5165  1  0.86974790  0.91666667  0.17647059  1
  Cu  Cu5166  1  0.01260504  0.08333333  0.67647059  1
  Cu  Cu5167  1  0.01260504  0.25000000  0.67647059  1
  Cu  Cu5168  1  0.01260504  0.41666667  0.67647059  1
  Cu  Cu5169  1  0.01260504  0.58333333  0.67647059  1
  Cu  Cu5170  1  0.01260504  0.75000000  0.67647059  1
  Cu  Cu5171  1  0.01260504  0.91666667  0.67647059  1
  Cu  Cu5172  1  0.15546218  0.08333333  0.67647059  1
  Cu  Cu5173  1  0.15546218  0.25000000  0.67647059  1
  Cu  Cu5174  1  0.15546218  0.41666667  0.67647059  1
  Cu  Cu5175  1  0.15546218  0.58333333  0.67647059  1
  Cu  Cu5176  1  0.15546218  0.75000000  0.67647059  1
  Cu  Cu5177  1  0.15546218  0.91666667  0.67647059  1
  Cu  Cu5178  1  0.29831933  0.08333333  0.67647059  1
  Cu  Cu5179  1  0.29831933  0.25000000  0.67647059  1
  Cu  Cu5180  1  0.29831933  0.41666667  0.67647059  1
  Cu  Cu5181  1  0.29831933  0.58333333  0.67647059  1
  Cu  Cu5182  1  0.29831933  0.75000000  0.67647059  1
  Cu  Cu5183  1  0.29831933  0.91666667  0.67647059  1
  Cu  Cu5184  1  0.44117647  0.08333333  0.67647059  1
  Cu  Cu5185  1  0.44117647  0.25000000  0.67647059  1
  Cu  Cu5186  1  0.44117647  0.41666667  0.67647059  1
  Cu  Cu5187  1  0.44117647  0.58333333  0.67647059  1
  Cu  Cu5188  1  0.44117647  0.75000000  0.67647059  1
  Cu  Cu5189  1  0.44117647  0.91666667  0.67647059  1
  Cu  Cu5190  1  0.58403361  0.08333333  0.67647059  1
  Cu  Cu5191  1  0.58403361  0.25000000  0.67647059  1
  Cu  Cu5192  1  0.58403361  0.41666667  0.67647059  1
  Cu  Cu5193  1  0.58403361  0.58333333  0.67647059  1
  Cu  Cu5194  1  0.58403361  0.75000000  0.67647059  1
  Cu  Cu5195  1  0.58403361  0.91666667  0.67647059  1
  Cu  Cu5196  1  0.72689076  0.08333333  0.67647059  1
  Cu  Cu5197  1  0.72689076  0.25000000  0.67647059  1
  Cu  Cu5198  1  0.72689076  0.41666667  0.67647059  1
  Cu  Cu5199  1  0.72689076  0.58333333  0.67647059  1
  Cu  Cu5200  1  0.72689076  0.75000000  0.67647059  1
  Cu  Cu5201  1  0.72689076  0.91666667  0.67647059  1
  Cu  Cu5202  1  0.86974790  0.08333333  0.67647059  1
  Cu  Cu5203  1  0.86974790  0.25000000  0.67647059  1
  Cu  Cu5204  1  0.86974790  0.41666667  0.67647059  1
  Cu  Cu5205  1  0.86974790  0.58333333  0.67647059  1
  Cu  Cu5206  1  0.86974790  0.75000000  0.67647059  1
  Cu  Cu5207  1  0.86974790  0.91666667  0.67647059  1
  Cu  Cu5208  1  0.02521008  0.08333333  0.10294118  1
  Cu  Cu5209  1  0.02521008  0.25000000  0.10294118  1
  Cu  Cu5210  1  0.02521008  0.41666667  0.10294118  1
  Cu  Cu5211  1  0.02521008  0.58333333  0.10294118  1
  Cu  Cu5212  1  0.02521008  0.75000000  0.10294118  1
  Cu  Cu5213  1  0.02521008  0.91666667  0.10294118  1
  Cu  Cu5214  1  0.16806723  0.08333333  0.10294118  1
  Cu  Cu5215  1  0.16806723  0.25000000  0.10294118  1
  Cu  Cu5216  1  0.16806723  0.41666667  0.10294118  1
  Cu  Cu5217  1  0.16806723  0.58333333  0.10294118  1
  Cu  Cu5218  1  0.16806723  0.75000000  0.10294118  1
  Cu  Cu5219  1  0.16806723  0.91666667  0.10294118  1
  Cu  Cu5220  1  0.31092437  0.08333333  0.10294118  1
  Cu  Cu5221  1  0.31092437  0.25000000  0.10294118  1
  Cu  Cu5222  1  0.31092437  0.41666667  0.10294118  1
  Cu  Cu5223  1  0.31092437  0.58333333  0.10294118  1
  Cu  Cu5224  1  0.31092437  0.75000000  0.10294118  1
  Cu  Cu5225  1  0.31092437  0.91666667  0.10294118  1
  Cu  Cu5226  1  0.45378151  0.08333333  0.10294118  1
  Cu  Cu5227  1  0.45378151  0.25000000  0.10294118  1
  Cu  Cu5228  1  0.45378151  0.41666667  0.10294118  1
  Cu  Cu5229  1  0.45378151  0.58333333  0.10294118  1
  Cu  Cu5230  1  0.45378151  0.75000000  0.10294118  1
  Cu  Cu5231  1  0.45378151  0.91666667  0.10294118  1
  Cu  Cu5232  1  0.59663866  0.08333333  0.10294118  1
  Cu  Cu5233  1  0.59663866  0.25000000  0.10294118  1
  Cu  Cu5234  1  0.59663866  0.41666667  0.10294118  1
  Cu  Cu5235  1  0.59663866  0.58333333  0.10294118  1
  Cu  Cu5236  1  0.59663866  0.75000000  0.10294118  1
  Cu  Cu5237  1  0.59663866  0.91666667  0.10294118  1
  Cu  Cu5238  1  0.73949580  0.08333333  0.10294118  1
  Cu  Cu5239  1  0.73949580  0.25000000  0.10294118  1
  Cu  Cu5240  1  0.73949580  0.41666667  0.10294118  1
  Cu  Cu5241  1  0.73949580  0.58333333  0.10294118  1
  Cu  Cu5242  1  0.73949580  0.75000000  0.10294118  1
  Cu  Cu5243  1  0.73949580  0.91666667  0.10294118  1
  Cu  Cu5244  1  0.88235294  0.08333333  0.10294118  1
  Cu  Cu5245  1  0.88235294  0.25000000  0.10294118  1
  Cu  Cu5246  1  0.88235294  0.41666667  0.10294118  1
  Cu  Cu5247  1  0.88235294  0.58333333  0.10294118  1
  Cu  Cu5248  1  0.88235294  0.75000000  0.10294118  1
  Cu  Cu5249  1  0.88235294  0.91666667  0.10294118  1
  Cu  Cu5250  1  0.02521008  0.08333333  0.60294118  1
  Cu  Cu5251  1  0.02521008  0.25000000  0.60294118  1
  Cu  Cu5252  1  0.02521008  0.41666667  0.60294118  1
  Cu  Cu5253  1  0.02521008  0.58333333  0.60294118  1
  Cu  Cu5254  1  0.02521008  0.75000000  0.60294118  1
  Cu  Cu5255  1  0.02521008  0.91666667  0.60294118  1
  Cu  Cu5256  1  0.16806723  0.08333333  0.60294118  1
  Cu  Cu5257  1  0.16806723  0.25000000  0.60294118  1
  Cu  Cu5258  1  0.16806723  0.41666667  0.60294118  1
  Cu  Cu5259  1  0.16806723  0.58333333  0.60294118  1
  Cu  Cu5260  1  0.16806723  0.75000000  0.60294118  1
  Cu  Cu5261  1  0.16806723  0.91666667  0.60294118  1
  Cu  Cu5262  1  0.31092437  0.08333333  0.60294118  1
  Cu  Cu5263  1  0.31092437  0.25000000  0.60294118  1
  Cu  Cu5264  1  0.31092437  0.41666667  0.60294118  1
  Cu  Cu5265  1  0.31092437  0.58333333  0.60294118  1
  Cu  Cu5266  1  0.31092437  0.75000000  0.60294118  1
  Cu  Cu5267  1  0.31092437  0.91666667  0.60294118  1
  Cu  Cu5268  1  0.45378151  0.08333333  0.60294118  1
  Cu  Cu5269  1  0.45378151  0.25000000  0.60294118  1
  Cu  Cu5270  1  0.45378151  0.41666667  0.60294118  1
  Cu  Cu5271  1  0.45378151  0.58333333  0.60294118  1
  Cu  Cu5272  1  0.45378151  0.75000000  0.60294118  1
  Cu  Cu5273  1  0.45378151  0.91666667  0.60294118  1
  Cu  Cu5274  1  0.59663866  0.08333333  0.60294118  1
  Cu  Cu5275  1  0.59663866  0.25000000  0.60294118  1
  Cu  Cu5276  1  0.59663866  0.41666667  0.60294118  1
  Cu  Cu5277  1  0.59663866  0.58333333  0.60294118  1
  Cu  Cu5278  1  0.59663866  0.75000000  0.60294118  1
  Cu  Cu5279  1  0.59663866  0.91666667  0.60294118  1
  Cu  Cu5280  1  0.73949580  0.08333333  0.60294118  1
  Cu  Cu5281  1  0.73949580  0.25000000  0.60294118  1
  Cu  Cu5282  1  0.73949580  0.41666667  0.60294118  1
  Cu  Cu5283  1  0.73949580  0.58333333  0.60294118  1
  Cu  Cu5284  1  0.73949580  0.75000000  0.60294118  1
  Cu  Cu5285  1  0.73949580  0.91666667  0.60294118  1
  Cu  Cu5286  1  0.88235294  0.08333333  0.60294118  1
  Cu  Cu5287  1  0.88235294  0.25000000  0.60294118  1
  Cu  Cu5288  1  0.88235294  0.41666667  0.60294118  1
  Cu  Cu5289  1  0.88235294  0.58333333  0.60294118  1
  Cu  Cu5290  1  0.88235294  0.75000000  0.60294118  1
  Cu  Cu5291  1  0.88235294  0.91666667  0.60294118  1
  Cu  Cu5292  1  0.00840336  0.00000000  0.11764706  1
  Cu  Cu5293  1  0.00840336  0.16666667  0.11764706  1
  Cu  Cu5294  1  0.00840336  0.33333333  0.11764706  1
  Cu  Cu5295  1  0.00840336  0.50000000  0.11764706  1
  Cu  Cu5296  1  0.00840336  0.66666667  0.11764706  1
  Cu  Cu5297  1  0.00840336  0.83333333  0.11764706  1
  Cu  Cu5298  1  0.15126050  0.00000000  0.11764706  1
  Cu  Cu5299  1  0.15126050  0.16666667  0.11764706  1
  Cu  Cu5300  1  0.15126050  0.33333333  0.11764706  1
  Cu  Cu5301  1  0.15126050  0.50000000  0.11764706  1
  Cu  Cu5302  1  0.15126050  0.66666667  0.11764706  1
  Cu  Cu5303  1  0.15126050  0.83333333  0.11764706  1
  Cu  Cu5304  1  0.29411765  0.00000000  0.11764706  1
  Cu  Cu5305  1  0.29411765  0.16666667  0.11764706  1
  Cu  Cu5306  1  0.29411765  0.33333333  0.11764706  1
  Cu  Cu5307  1  0.29411765  0.50000000  0.11764706  1
  Cu  Cu5308  1  0.29411765  0.66666667  0.11764706  1
  Cu  Cu5309  1  0.29411765  0.83333333  0.11764706  1
  Cu  Cu5310  1  0.43697479  0.00000000  0.11764706  1
  Cu  Cu5311  1  0.43697479  0.16666667  0.11764706  1
  Cu  Cu5312  1  0.43697479  0.33333333  0.11764706  1
  Cu  Cu5313  1  0.43697479  0.50000000  0.11764706  1
  Cu  Cu5314  1  0.43697479  0.66666667  0.11764706  1
  Cu  Cu5315  1  0.43697479  0.83333333  0.11764706  1
  Cu  Cu5316  1  0.57983193  0.00000000  0.11764706  1
  Cu  Cu5317  1  0.57983193  0.16666667  0.11764706  1
  Cu  Cu5318  1  0.57983193  0.33333333  0.11764706  1
  Cu  Cu5319  1  0.57983193  0.50000000  0.11764706  1
  Cu  Cu5320  1  0.57983193  0.66666667  0.11764706  1
  Cu  Cu5321  1  0.57983193  0.83333333  0.11764706  1
  Cu  Cu5322  1  0.72268908  0.00000000  0.11764706  1
  Cu  Cu5323  1  0.72268908  0.16666667  0.11764706  1
  Cu  Cu5324  1  0.72268908  0.33333333  0.11764706  1
  Cu  Cu5325  1  0.72268908  0.50000000  0.11764706  1
  Cu  Cu5326  1  0.72268908  0.66666667  0.11764706  1
  Cu  Cu5327  1  0.72268908  0.83333333  0.11764706  1
  Cu  Cu5328  1  0.86554622  0.00000000  0.11764706  1
  Cu  Cu5329  1  0.86554622  0.16666667  0.11764706  1
  Cu  Cu5330  1  0.86554622  0.33333333  0.11764706  1
  Cu  Cu5331  1  0.86554622  0.50000000  0.11764706  1
  Cu  Cu5332  1  0.86554622  0.66666667  0.11764706  1
  Cu  Cu5333  1  0.86554622  0.83333333  0.11764706  1
  Cu  Cu5334  1  0.00840336  0.00000000  0.61764706  1
  Cu  Cu5335  1  0.00840336  0.16666667  0.61764706  1
  Cu  Cu5336  1  0.00840336  0.33333333  0.61764706  1
  Cu  Cu5337  1  0.00840336  0.50000000  0.61764706  1
  Cu  Cu5338  1  0.00840336  0.66666667  0.61764706  1
  Cu  Cu5339  1  0.00840336  0.83333333  0.61764706  1
  Cu  Cu5340  1  0.15126050  0.00000000  0.61764706  1
  Cu  Cu5341  1  0.15126050  0.16666667  0.61764706  1
  Cu  Cu5342  1  0.15126050  0.33333333  0.61764706  1
  Cu  Cu5343  1  0.15126050  0.50000000  0.61764706  1
  Cu  Cu5344  1  0.15126050  0.66666667  0.61764706  1
  Cu  Cu5345  1  0.15126050  0.83333333  0.61764706  1
  Cu  Cu5346  1  0.29411765  0.00000000  0.61764706  1
  Cu  Cu5347  1  0.29411765  0.16666667  0.61764706  1
  Cu  Cu5348  1  0.29411765  0.33333333  0.61764706  1
  Cu  Cu5349  1  0.29411765  0.50000000  0.61764706  1
  Cu  Cu5350  1  0.29411765  0.66666667  0.61764706  1
  Cu  Cu5351  1  0.29411765  0.83333333  0.61764706  1
  Cu  Cu5352  1  0.43697479  0.00000000  0.61764706  1
  Cu  Cu5353  1  0.43697479  0.16666667  0.61764706  1
  Cu  Cu5354  1  0.43697479  0.33333333  0.61764706  1
  Cu  Cu5355  1  0.43697479  0.50000000  0.61764706  1
  Cu  Cu5356  1  0.43697479  0.66666667  0.61764706  1
  Cu  Cu5357  1  0.43697479  0.83333333  0.61764706  1
  Cu  Cu5358  1  0.57983193  0.00000000  0.61764706  1
  Cu  Cu5359  1  0.57983193  0.16666667  0.61764706  1
  Cu  Cu5360  1  0.57983193  0.33333333  0.61764706  1
  Cu  Cu5361  1  0.57983193  0.50000000  0.61764706  1
  Cu  Cu5362  1  0.57983193  0.66666667  0.61764706  1
  Cu  Cu5363  1  0.57983193  0.83333333  0.61764706  1
  Cu  Cu5364  1  0.72268908  0.00000000  0.61764706  1
  Cu  Cu5365  1  0.72268908  0.16666667  0.61764706  1
  Cu  Cu5366  1  0.72268908  0.33333333  0.61764706  1
  Cu  Cu5367  1  0.72268908  0.50000000  0.61764706  1
  Cu  Cu5368  1  0.72268908  0.66666667  0.61764706  1
  Cu  Cu5369  1  0.72268908  0.83333333  0.61764706  1
  Cu  Cu5370  1  0.86554622  0.00000000  0.61764706  1
  Cu  Cu5371  1  0.86554622  0.16666667  0.61764706  1
  Cu  Cu5372  1  0.86554622  0.33333333  0.61764706  1
  Cu  Cu5373  1  0.86554622  0.50000000  0.61764706  1
  Cu  Cu5374  1  0.86554622  0.66666667  0.61764706  1
  Cu  Cu5375  1  0.86554622  0.83333333  0.61764706  1
  Cu  Cu5376  1  0.03781513  0.08333333  0.02941176  1
  Cu  Cu5377  1  0.03781513  0.25000000  0.02941176  1
  Cu  Cu5378  1  0.03781513  0.41666667  0.02941176  1
  Cu  Cu5379  1  0.03781513  0.58333333  0.02941176  1
  Cu  Cu5380  1  0.03781513  0.75000000  0.02941176  1
  Cu  Cu5381  1  0.03781513  0.91666667  0.02941176  1
  Cu  Cu5382  1  0.18067227  0.08333333  0.02941176  1
  Cu  Cu5383  1  0.18067227  0.25000000  0.02941176  1
  Cu  Cu5384  1  0.18067227  0.41666667  0.02941176  1
  Cu  Cu5385  1  0.18067227  0.58333333  0.02941176  1
  Cu  Cu5386  1  0.18067227  0.75000000  0.02941176  1
  Cu  Cu5387  1  0.18067227  0.91666667  0.02941176  1
  Cu  Cu5388  1  0.32352941  0.08333333  0.02941176  1
  Cu  Cu5389  1  0.32352941  0.25000000  0.02941176  1
  Cu  Cu5390  1  0.32352941  0.41666667  0.02941176  1
  Cu  Cu5391  1  0.32352941  0.58333333  0.02941176  1
  Cu  Cu5392  1  0.32352941  0.75000000  0.02941176  1
  Cu  Cu5393  1  0.32352941  0.91666667  0.02941176  1
  Cu  Cu5394  1  0.46638655  0.08333333  0.02941176  1
  Cu  Cu5395  1  0.46638655  0.25000000  0.02941176  1
  Cu  Cu5396  1  0.46638655  0.41666667  0.02941176  1
  Cu  Cu5397  1  0.46638655  0.58333333  0.02941176  1
  Cu  Cu5398  1  0.46638655  0.75000000  0.02941176  1
  Cu  Cu5399  1  0.46638655  0.91666667  0.02941176  1
  Cu  Cu5400  1  0.60924370  0.08333333  0.02941176  1
  Cu  Cu5401  1  0.60924370  0.25000000  0.02941176  1
  Cu  Cu5402  1  0.60924370  0.41666667  0.02941176  1
  Cu  Cu5403  1  0.60924370  0.58333333  0.02941176  1
  Cu  Cu5404  1  0.60924370  0.75000000  0.02941176  1
  Cu  Cu5405  1  0.60924370  0.91666667  0.02941176  1
  Cu  Cu5406  1  0.75210084  0.08333333  0.02941176  1
  Cu  Cu5407  1  0.75210084  0.25000000  0.02941176  1
  Cu  Cu5408  1  0.75210084  0.41666667  0.02941176  1
  Cu  Cu5409  1  0.75210084  0.58333333  0.02941176  1
  Cu  Cu5410  1  0.75210084  0.75000000  0.02941176  1
  Cu  Cu5411  1  0.75210084  0.91666667  0.02941176  1
  Cu  Cu5412  1  0.89495798  0.08333333  0.02941176  1
  Cu  Cu5413  1  0.89495798  0.25000000  0.02941176  1
  Cu  Cu5414  1  0.89495798  0.41666667  0.02941176  1
  Cu  Cu5415  1  0.89495798  0.58333333  0.02941176  1
  Cu  Cu5416  1  0.89495798  0.75000000  0.02941176  1
  Cu  Cu5417  1  0.89495798  0.91666667  0.02941176  1
  Cu  Cu5418  1  0.03781513  0.08333333  0.52941176  1
  Cu  Cu5419  1  0.03781513  0.25000000  0.52941176  1
  Cu  Cu5420  1  0.03781513  0.41666667  0.52941176  1
  Cu  Cu5421  1  0.03781513  0.58333333  0.52941176  1
  Cu  Cu5422  1  0.03781513  0.75000000  0.52941176  1
  Cu  Cu5423  1  0.03781513  0.91666667  0.52941176  1
  Cu  Cu5424  1  0.18067227  0.08333333  0.52941176  1
  Cu  Cu5425  1  0.18067227  0.25000000  0.52941176  1
  Cu  Cu5426  1  0.18067227  0.41666667  0.52941176  1
  Cu  Cu5427  1  0.18067227  0.58333333  0.52941176  1
  Cu  Cu5428  1  0.18067227  0.75000000  0.52941176  1
  Cu  Cu5429  1  0.18067227  0.91666667  0.52941176  1
  Cu  Cu5430  1  0.32352941  0.08333333  0.52941176  1
  Cu  Cu5431  1  0.32352941  0.25000000  0.52941176  1
  Cu  Cu5432  1  0.32352941  0.41666667  0.52941176  1
  Cu  Cu5433  1  0.32352941  0.58333333  0.52941176  1
  Cu  Cu5434  1  0.32352941  0.75000000  0.52941176  1
  Cu  Cu5435  1  0.32352941  0.91666667  0.52941176  1
  Cu  Cu5436  1  0.46638655  0.08333333  0.52941176  1
  Cu  Cu5437  1  0.46638655  0.25000000  0.52941176  1
  Cu  Cu5438  1  0.46638655  0.41666667  0.52941176  1
  Cu  Cu5439  1  0.46638655  0.58333333  0.52941176  1
  Cu  Cu5440  1  0.46638655  0.75000000  0.52941176  1
  Cu  Cu5441  1  0.46638655  0.91666667  0.52941176  1
  Cu  Cu5442  1  0.60924370  0.08333333  0.52941176  1
  Cu  Cu5443  1  0.60924370  0.25000000  0.52941176  1
  Cu  Cu5444  1  0.60924370  0.41666667  0.52941176  1
  Cu  Cu5445  1  0.60924370  0.58333333  0.52941176  1
  Cu  Cu5446  1  0.60924370  0.75000000  0.52941176  1
  Cu  Cu5447  1  0.60924370  0.91666667  0.52941176  1
  Cu  Cu5448  1  0.75210084  0.08333333  0.52941176  1
  Cu  Cu5449  1  0.75210084  0.25000000  0.52941176  1
  Cu  Cu5450  1  0.75210084  0.41666667  0.52941176  1
  Cu  Cu5451  1  0.75210084  0.58333333  0.52941176  1
  Cu  Cu5452  1  0.75210084  0.75000000  0.52941176  1
  Cu  Cu5453  1  0.75210084  0.91666667  0.52941176  1
  Cu  Cu5454  1  0.89495798  0.08333333  0.52941176  1
  Cu  Cu5455  1  0.89495798  0.25000000  0.52941176  1
  Cu  Cu5456  1  0.89495798  0.41666667  0.52941176  1
  Cu  Cu5457  1  0.89495798  0.58333333  0.52941176  1
  Cu  Cu5458  1  0.89495798  0.75000000  0.52941176  1
  Cu  Cu5459  1  0.89495798  0.91666667  0.52941176  1
  Cu  Cu5460  1  0.02100840  0.00000000  0.04411765  1
  Cu  Cu5461  1  0.02100840  0.16666667  0.04411765  1
  Cu  Cu5462  1  0.02100840  0.33333333  0.04411765  1
  Cu  Cu5463  1  0.02100840  0.50000000  0.04411765  1
  Cu  Cu5464  1  0.02100840  0.66666667  0.04411765  1
  Cu  Cu5465  1  0.02100840  0.83333333  0.04411765  1
  Cu  Cu5466  1  0.16386555  0.00000000  0.04411765  1
  Cu  Cu5467  1  0.16386555  0.16666667  0.04411765  1
  Cu  Cu5468  1  0.16386555  0.33333333  0.04411765  1
  Cu  Cu5469  1  0.16386555  0.50000000  0.04411765  1
  Cu  Cu5470  1  0.16386555  0.66666667  0.04411765  1
  Cu  Cu5471  1  0.16386555  0.83333333  0.04411765  1
  Cu  Cu5472  1  0.30672269  0.00000000  0.04411765  1
  Cu  Cu5473  1  0.30672269  0.16666667  0.04411765  1
  Cu  Cu5474  1  0.30672269  0.33333333  0.04411765  1
  Cu  Cu5475  1  0.30672269  0.50000000  0.04411765  1
  Cu  Cu5476  1  0.30672269  0.66666667  0.04411765  1
  Cu  Cu5477  1  0.30672269  0.83333333  0.04411765  1
  Cu  Cu5478  1  0.44957983  0.00000000  0.04411765  1
  Cu  Cu5479  1  0.44957983  0.16666667  0.04411765  1
  Cu  Cu5480  1  0.44957983  0.33333333  0.04411765  1
  Cu  Cu5481  1  0.44957983  0.50000000  0.04411765  1
  Cu  Cu5482  1  0.44957983  0.66666667  0.04411765  1
  Cu  Cu5483  1  0.44957983  0.83333333  0.04411765  1
  Cu  Cu5484  1  0.59243697  0.00000000  0.04411765  1
  Cu  Cu5485  1  0.59243697  0.16666667  0.04411765  1
  Cu  Cu5486  1  0.59243697  0.33333333  0.04411765  1
  Cu  Cu5487  1  0.59243697  0.50000000  0.04411765  1
  Cu  Cu5488  1  0.59243697  0.66666667  0.04411765  1
  Cu  Cu5489  1  0.59243697  0.83333333  0.04411765  1
  Cu  Cu5490  1  0.73529412  0.00000000  0.04411765  1
  Cu  Cu5491  1  0.73529412  0.16666667  0.04411765  1
  Cu  Cu5492  1  0.73529412  0.33333333  0.04411765  1
  Cu  Cu5493  1  0.73529412  0.50000000  0.04411765  1
  Cu  Cu5494  1  0.73529412  0.66666667  0.04411765  1
  Cu  Cu5495  1  0.73529412  0.83333333  0.04411765  1
  Cu  Cu5496  1  0.87815126  0.00000000  0.04411765  1
  Cu  Cu5497  1  0.87815126  0.16666667  0.04411765  1
  Cu  Cu5498  1  0.87815126  0.33333333  0.04411765  1
  Cu  Cu5499  1  0.87815126  0.50000000  0.04411765  1
  Cu  Cu5500  1  0.87815126  0.66666667  0.04411765  1
  Cu  Cu5501  1  0.87815126  0.83333333  0.04411765  1
  Cu  Cu5502  1  0.02100840  0.00000000  0.54411765  1
  Cu  Cu5503  1  0.02100840  0.16666667  0.54411765  1
  Cu  Cu5504  1  0.02100840  0.33333333  0.54411765  1
  Cu  Cu5505  1  0.02100840  0.50000000  0.54411765  1
  Cu  Cu5506  1  0.02100840  0.66666667  0.54411765  1
  Cu  Cu5507  1  0.02100840  0.83333333  0.54411765  1
  Cu  Cu5508  1  0.16386555  0.00000000  0.54411765  1
  Cu  Cu5509  1  0.16386555  0.16666667  0.54411765  1
  Cu  Cu5510  1  0.16386555  0.33333333  0.54411765  1
  Cu  Cu5511  1  0.16386555  0.50000000  0.54411765  1
  Cu  Cu5512  1  0.16386555  0.66666667  0.54411765  1
  Cu  Cu5513  1  0.16386555  0.83333333  0.54411765  1
  Cu  Cu5514  1  0.30672269  0.00000000  0.54411765  1
  Cu  Cu5515  1  0.30672269  0.16666667  0.54411765  1
  Cu  Cu5516  1  0.30672269  0.33333333  0.54411765  1
  Cu  Cu5517  1  0.30672269  0.50000000  0.54411765  1
  Cu  Cu5518  1  0.30672269  0.66666667  0.54411765  1
  Cu  Cu5519  1  0.30672269  0.83333333  0.54411765  1
  Cu  Cu5520  1  0.44957983  0.00000000  0.54411765  1
  Cu  Cu5521  1  0.44957983  0.16666667  0.54411765  1
  Cu  Cu5522  1  0.44957983  0.33333333  0.54411765  1
  Cu  Cu5523  1  0.44957983  0.50000000  0.54411765  1
  Cu  Cu5524  1  0.44957983  0.66666667  0.54411765  1
  Cu  Cu5525  1  0.44957983  0.83333333  0.54411765  1
  Cu  Cu5526  1  0.59243697  0.00000000  0.54411765  1
  Cu  Cu5527  1  0.59243697  0.16666667  0.54411765  1
  Cu  Cu5528  1  0.59243697  0.33333333  0.54411765  1
  Cu  Cu5529  1  0.59243697  0.50000000  0.54411765  1
  Cu  Cu5530  1  0.59243697  0.66666667  0.54411765  1
  Cu  Cu5531  1  0.59243697  0.83333333  0.54411765  1
  Cu  Cu5532  1  0.73529412  0.00000000  0.54411765  1
  Cu  Cu5533  1  0.73529412  0.16666667  0.54411765  1
  Cu  Cu5534  1  0.73529412  0.33333333  0.54411765  1
  Cu  Cu5535  1  0.73529412  0.50000000  0.54411765  1
  Cu  Cu5536  1  0.73529412  0.66666667  0.54411765  1
  Cu  Cu5537  1  0.73529412  0.83333333  0.54411765  1
  Cu  Cu5538  1  0.87815126  0.00000000  0.54411765  1
  Cu  Cu5539  1  0.87815126  0.16666667  0.54411765  1
  Cu  Cu5540  1  0.87815126  0.33333333  0.54411765  1
  Cu  Cu5541  1  0.87815126  0.50000000  0.54411765  1
  Cu  Cu5542  1  0.87815126  0.66666667  0.54411765  1
  Cu  Cu5543  1  0.87815126  0.83333333  0.54411765  1
  Cu  Cu5544  1  0.00420168  0.08333333  0.05882353  1
  Cu  Cu5545  1  0.00420168  0.25000000  0.05882353  1
  Cu  Cu5546  1  0.00420168  0.41666667  0.05882353  1
  Cu  Cu5547  1  0.00420168  0.58333333  0.05882353  1
  Cu  Cu5548  1  0.00420168  0.75000000  0.05882353  1
  Cu  Cu5549  1  0.00420168  0.91666667  0.05882353  1
  Cu  Cu5550  1  0.14705882  0.08333333  0.05882353  1
  Cu  Cu5551  1  0.14705882  0.25000000  0.05882353  1
  Cu  Cu5552  1  0.14705882  0.41666667  0.05882353  1
  Cu  Cu5553  1  0.14705882  0.58333333  0.05882353  1
  Cu  Cu5554  1  0.14705882  0.75000000  0.05882353  1
  Cu  Cu5555  1  0.14705882  0.91666667  0.05882353  1
  Cu  Cu5556  1  0.28991597  0.08333333  0.05882353  1
  Cu  Cu5557  1  0.28991597  0.25000000  0.05882353  1
  Cu  Cu5558  1  0.28991597  0.41666667  0.05882353  1
  Cu  Cu5559  1  0.28991597  0.58333333  0.05882353  1
  Cu  Cu5560  1  0.28991597  0.75000000  0.05882353  1
  Cu  Cu5561  1  0.28991597  0.91666667  0.05882353  1
  Cu  Cu5562  1  0.43277311  0.08333333  0.05882353  1
  Cu  Cu5563  1  0.43277311  0.25000000  0.05882353  1
  Cu  Cu5564  1  0.43277311  0.41666667  0.05882353  1
  Cu  Cu5565  1  0.43277311  0.58333333  0.05882353  1
  Cu  Cu5566  1  0.43277311  0.75000000  0.05882353  1
  Cu  Cu5567  1  0.43277311  0.91666667  0.05882353  1
  Cu  Cu5568  1  0.57563025  0.08333333  0.05882353  1
  Cu  Cu5569  1  0.57563025  0.25000000  0.05882353  1
  Cu  Cu5570  1  0.57563025  0.41666667  0.05882353  1
  Cu  Cu5571  1  0.57563025  0.58333333  0.05882353  1
  Cu  Cu5572  1  0.57563025  0.75000000  0.05882353  1
  Cu  Cu5573  1  0.57563025  0.91666667  0.05882353  1
  Cu  Cu5574  1  0.71848739  0.08333333  0.05882353  1
  Cu  Cu5575  1  0.71848739  0.25000000  0.05882353  1
  Cu  Cu5576  1  0.71848739  0.41666667  0.05882353  1
  Cu  Cu5577  1  0.71848739  0.58333333  0.05882353  1
  Cu  Cu5578  1  0.71848739  0.75000000  0.05882353  1
  Cu  Cu5579  1  0.71848739  0.91666667  0.05882353  1
  Cu  Cu5580  1  0.86134454  0.08333333  0.05882353  1
  Cu  Cu5581  1  0.86134454  0.25000000  0.05882353  1
  Cu  Cu5582  1  0.86134454  0.41666667  0.05882353  1
  Cu  Cu5583  1  0.86134454  0.58333333  0.05882353  1
  Cu  Cu5584  1  0.86134454  0.75000000  0.05882353  1
  Cu  Cu5585  1  0.86134454  0.91666667  0.05882353  1
  Cu  Cu5586  1  0.00420168  0.08333333  0.55882353  1
  Cu  Cu5587  1  0.00420168  0.25000000  0.55882353  1
  Cu  Cu5588  1  0.00420168  0.41666667  0.55882353  1
  Cu  Cu5589  1  0.00420168  0.58333333  0.55882353  1
  Cu  Cu5590  1  0.00420168  0.75000000  0.55882353  1
  Cu  Cu5591  1  0.00420168  0.91666667  0.55882353  1
  Cu  Cu5592  1  0.14705882  0.08333333  0.55882353  1
  Cu  Cu5593  1  0.14705882  0.25000000  0.55882353  1
  Cu  Cu5594  1  0.14705882  0.41666667  0.55882353  1
  Cu  Cu5595  1  0.14705882  0.58333333  0.55882353  1
  Cu  Cu5596  1  0.14705882  0.75000000  0.55882353  1
  Cu  Cu5597  1  0.14705882  0.91666667  0.55882353  1
  Cu  Cu5598  1  0.28991597  0.08333333  0.55882353  1
  Cu  Cu5599  1  0.28991597  0.25000000  0.55882353  1
  Cu  Cu5600  1  0.28991597  0.41666667  0.55882353  1
  Cu  Cu5601  1  0.28991597  0.58333333  0.55882353  1
  Cu  Cu5602  1  0.28991597  0.75000000  0.55882353  1
  Cu  Cu5603  1  0.28991597  0.91666667  0.55882353  1
  Cu  Cu5604  1  0.43277311  0.08333333  0.55882353  1
  Cu  Cu5605  1  0.43277311  0.25000000  0.55882353  1
  Cu  Cu5606  1  0.43277311  0.41666667  0.55882353  1
  Cu  Cu5607  1  0.43277311  0.58333333  0.55882353  1
  Cu  Cu5608  1  0.43277311  0.75000000  0.55882353  1
  Cu  Cu5609  1  0.43277311  0.91666667  0.55882353  1
  Cu  Cu5610  1  0.57563025  0.08333333  0.55882353  1
  Cu  Cu5611  1  0.57563025  0.25000000  0.55882353  1
  Cu  Cu5612  1  0.57563025  0.41666667  0.55882353  1
  Cu  Cu5613  1  0.57563025  0.58333333  0.55882353  1
  Cu  Cu5614  1  0.57563025  0.75000000  0.55882353  1
  Cu  Cu5615  1  0.57563025  0.91666667  0.55882353  1
  Cu  Cu5616  1  0.71848739  0.08333333  0.55882353  1
  Cu  Cu5617  1  0.71848739  0.25000000  0.55882353  1
  Cu  Cu5618  1  0.71848739  0.41666667  0.55882353  1
  Cu  Cu5619  1  0.71848739  0.58333333  0.55882353  1
  Cu  Cu5620  1  0.71848739  0.75000000  0.55882353  1
  Cu  Cu5621  1  0.71848739  0.91666667  0.55882353  1
  Cu  Cu5622  1  0.86134454  0.08333333  0.55882353  1
  Cu  Cu5623  1  0.86134454  0.25000000  0.55882353  1
  Cu  Cu5624  1  0.86134454  0.41666667  0.55882353  1
  Cu  Cu5625  1  0.86134454  0.58333333  0.55882353  1
  Cu  Cu5626  1  0.86134454  0.75000000  0.55882353  1
  Cu  Cu5627  1  0.86134454  0.91666667  0.55882353  1
  Cu  Cu5628  1  0.00000000  0.00000000  0.00000000  1
  Cu  Cu5629  1  0.00000000  0.16666667  0.00000000  1
  Cu  Cu5630  1  0.00000000  0.33333333  0.00000000  1
  Cu  Cu5631  1  0.00000000  0.50000000  0.00000000  1
  Cu  Cu5632  1  0.00000000  0.66666667  0.00000000  1
  Cu  Cu5633  1  0.00000000  0.83333333  0.00000000  1
  Cu  Cu5634  1  0.14285714  0.00000000  0.00000000  1
  Cu  Cu5635  1  0.14285714  0.16666667  0.00000000  1
  Cu  Cu5636  1  0.14285714  0.33333333  0.00000000  1
  Cu  Cu5637  1  0.14285714  0.50000000  0.00000000  1
  Cu  Cu5638  1  0.14285714  0.66666667  0.00000000  1
  Cu  Cu5639  1  0.14285714  0.83333333  0.00000000  1
  Cu  Cu5640  1  0.28571429  0.00000000  0.00000000  1
  Cu  Cu5641  1  0.28571429  0.16666667  0.00000000  1
  Cu  Cu5642  1  0.28571429  0.33333333  0.00000000  1
  Cu  Cu5643  1  0.28571429  0.50000000  0.00000000  1
  Cu  Cu5644  1  0.28571429  0.66666667  0.00000000  1
  Cu  Cu5645  1  0.28571429  0.83333333  0.00000000  1
  Cu  Cu5646  1  0.42857143  0.00000000  0.00000000  1
  Cu  Cu5647  1  0.42857143  0.16666667  0.00000000  1
  Cu  Cu5648  1  0.42857143  0.33333333  0.00000000  1
  Cu  Cu5649  1  0.42857143  0.50000000  0.00000000  1
  Cu  Cu5650  1  0.42857143  0.66666667  0.00000000  1
  Cu  Cu5651  1  0.42857143  0.83333333  0.00000000  1
  Cu  Cu5652  1  0.57142857  0.00000000  0.00000000  1
  Cu  Cu5653  1  0.57142857  0.16666667  0.00000000  1
  Cu  Cu5654  1  0.57142857  0.33333333  0.00000000  1
  Cu  Cu5655  1  0.57142857  0.50000000  0.00000000  1
  Cu  Cu5656  1  0.57142857  0.66666667  0.00000000  1
  Cu  Cu5657  1  0.57142857  0.83333333  0.00000000  1
  Cu  Cu5658  1  0.71428571  0.00000000  0.00000000  1
  Cu  Cu5659  1  0.71428571  0.16666667  0.00000000  1
  Cu  Cu5660  1  0.71428571  0.33333333  0.00000000  1
  Cu  Cu5661  1  0.71428571  0.50000000  0.00000000  1
  Cu  Cu5662  1  0.71428571  0.66666667  0.00000000  1
  Cu  Cu5663  1  0.71428571  0.83333333  0.00000000  1
  Cu  Cu5664  1  0.85714286  0.00000000  0.00000000  1
  Cu  Cu5665  1  0.85714286  0.16666667  0.00000000  1
  Cu  Cu5666  1  0.85714286  0.33333333  0.00000000  1
  Cu  Cu5667  1  0.85714286  0.50000000  0.00000000  1
  Cu  Cu5668  1  0.85714286  0.66666667  0.00000000  1
  Cu  Cu5669  1  0.85714286  0.83333333  0.00000000  1
  Cu  Cu5670  1  0.00000000  0.00000000  0.50000000  1
  Cu  Cu5671  1  0.00000000  0.16666667  0.50000000  1
  Cu  Cu5672  1  0.00000000  0.33333333  0.50000000  1
  Cu  Cu5673  1  0.00000000  0.50000000  0.50000000  1
  Cu  Cu5674  1  0.00000000  0.66666667  0.50000000  1
  Cu  Cu5675  1  0.00000000  0.83333333  0.50000000  1
  Cu  Cu5676  1  0.14285714  0.00000000  0.50000000  1
  Cu  Cu5677  1  0.14285714  0.16666667  0.50000000  1
  Cu  Cu5678  1  0.14285714  0.33333333  0.50000000  1
  Cu  Cu5679  1  0.14285714  0.50000000  0.50000000  1
  Cu  Cu5680  1  0.14285714  0.66666667  0.50000000  1
  Cu  Cu5681  1  0.14285714  0.83333333  0.50000000  1
  Cu  Cu5682  1  0.28571429  0.00000000  0.50000000  1
  Cu  Cu5683  1  0.28571429  0.16666667  0.50000000  1
  Cu  Cu5684  1  0.28571429  0.33333333  0.50000000  1
  Cu  Cu5685  1  0.28571429  0.50000000  0.50000000  1
  Cu  Cu5686  1  0.28571429  0.66666667  0.50000000  1
  Cu  Cu5687  1  0.28571429  0.83333333  0.50000000  1
  Cu  Cu5688  1  0.42857143  0.00000000  0.50000000  1
  Cu  Cu5689  1  0.42857143  0.16666667  0.50000000  1
  Cu  Cu5690  1  0.42857143  0.33333333  0.50000000  1
  Cu  Cu5691  1  0.42857143  0.50000000  0.50000000  1
  Cu  Cu5692  1  0.42857143  0.66666667  0.50000000  1
  Cu  Cu5693  1  0.42857143  0.83333333  0.50000000  1
  Cu  Cu5694  1  0.57142857  0.00000000  0.50000000  1
  Cu  Cu5695  1  0.57142857  0.16666667  0.50000000  1
  Cu  Cu5696  1  0.57142857  0.33333333  0.50000000  1
  Cu  Cu5697  1  0.57142857  0.50000000  0.50000000  1
  Cu  Cu5698  1  0.57142857  0.66666667  0.50000000  1
  Cu  Cu5699  1  0.57142857  0.83333333  0.50000000  1
  Cu  Cu5700  1  0.71428571  0.00000000  0.50000000  1
  Cu  Cu5701  1  0.71428571  0.16666667  0.50000000  1
  Cu  Cu5702  1  0.71428571  0.33333333  0.50000000  1
  Cu  Cu5703  1  0.71428571  0.50000000  0.50000000  1
  Cu  Cu5704  1  0.71428571  0.66666667  0.50000000  1
  Cu  Cu5705  1  0.71428571  0.83333333  0.50000000  1
  Cu  Cu5706  1  0.85714286  0.00000000  0.50000000  1
  Cu  Cu5707  1  0.85714286  0.16666667  0.50000000  1
  Cu  Cu5708  1  0.85714286  0.33333333  0.50000000  1
  Cu  Cu5709  1  0.85714286  0.50000000  0.50000000  1
  Cu  Cu5710  1  0.85714286  0.66666667  0.50000000  1
  Cu  Cu5711  1  0.85714286  0.83333333  0.50000000  1
